Version 4
SHEET 1 2084 680
WIRE -832 -640 -1008 -640
WIRE -720 -640 -832 -640
WIRE -608 -640 -720 -640
WIRE -192 -640 -240 -640
WIRE 32 -640 -112 -640
WIRE 224 -640 32 -640
WIRE 336 -640 304 -640
WIRE 448 -640 400 -640
WIRE 576 -640 528 -640
WIRE 608 -640 576 -640
WIRE 768 -640 688 -640
WIRE 864 -640 768 -640
WIRE -1008 -608 -1008 -640
WIRE -832 -608 -832 -640
WIRE -720 -608 -720 -640
WIRE -608 -608 -608 -640
WIRE 768 -592 768 -640
WIRE 864 -592 864 -640
WIRE -832 -528 -832 -544
WIRE -720 -528 -720 -544
WIRE -720 -528 -832 -528
WIRE -608 -512 -608 -528
WIRE -496 -512 -608 -512
WIRE -464 -512 -496 -512
WIRE -240 -512 -240 -640
WIRE -192 -512 -240 -512
WIRE -96 -512 -128 -512
WIRE 32 -512 32 -640
WIRE 32 -512 -16 -512
WIRE 80 -512 32 -512
WIRE 256 -512 256 -592
WIRE 256 -512 144 -512
WIRE -1008 -496 -1008 -528
WIRE -832 -496 -832 -528
WIRE -608 -480 -608 -512
WIRE -496 -480 -496 -512
WIRE -240 -480 -240 -512
WIRE 768 -480 768 -528
WIRE 864 -480 864 -528
WIRE -240 -384 -240 -416
WIRE 576 -384 576 -640
WIRE 608 -384 576 -384
WIRE 768 -384 768 -416
WIRE 768 -384 688 -384
WIRE 864 -384 864 -416
WIRE 864 -384 768 -384
WIRE -608 -368 -608 -400
WIRE -496 -368 -496 -416
WIRE 176 -304 176 -336
WIRE 32 -288 32 -512
WIRE 144 -288 32 -288
WIRE 256 -272 256 -512
WIRE 256 -272 208 -272
WIRE -128 -256 -192 -256
WIRE -80 -256 -128 -256
WIRE 32 -256 -16 -256
WIRE 144 -256 32 -256
WIRE 736 -256 736 -288
WIRE 576 -240 576 -384
WIRE 704 -240 576 -240
WIRE -128 -224 -128 -256
WIRE 32 -224 32 -256
WIRE 864 -224 864 -384
WIRE 864 -224 768 -224
WIRE 880 -224 864 -224
WIRE 976 -224 960 -224
WIRE -448 -208 -448 -240
WIRE 176 -208 176 -240
WIRE 704 -208 656 -208
WIRE 656 -176 656 -208
WIRE 976 -176 976 -224
WIRE 736 -160 736 -192
WIRE -128 -128 -128 -144
WIRE 32 -128 32 -144
WIRE 1344 -128 1024 -128
WIRE 1456 -128 1424 -128
WIRE 1584 -128 1456 -128
WIRE -448 -112 -448 -128
WIRE 1584 -64 1584 -128
WIRE 976 -32 976 -96
WIRE 1456 -32 1456 -128
WIRE 1824 -16 1632 -16
WIRE 1920 -16 1888 -16
WIRE 2016 -16 1920 -16
WIRE 1920 32 1920 -16
WIRE 976 64 976 32
WIRE 1456 64 1456 32
WIRE 1584 64 1584 16
WIRE 1920 128 1920 112
FLAG -1008 -496 0
FLAG -1008 -640 V+
FLAG 176 -336 V+
FLAG 736 -288 V+
FLAG 176 -208 0
FLAG 736 -160 0
FLAG -832 -496 0
FLAG -608 -368 0
FLAG -496 -368 0
FLAG -464 -512 V2
FLAG -128 -128 0
FLAG 32 -128 V2
FLAG -240 -384 V2
FLAG 656 -176 V2
FLAG 976 64 V2
FLAG 1456 64 V2
FLAG 1920 128 0
FLAG 1584 64 V2
FLAG -448 -240 IN
FLAG -448 -112 0
FLAG -192 -256 IN
FLAG 2016 -16 OUT
SYMBOL TL072 176 -272 R0
SYMATTR InstName U1
SYMBOL TL072 736 -224 R0
SYMATTR InstName U2
SYMBOL voltage -1008 -624 R0
SYMATTR InstName V1
SYMATTR Value 9
SYMBOL diode -816 -544 R180
WINDOW 0 24 64 Left 2
WINDOW 3 24 0 Left 2
SYMATTR InstName D5
SYMATTR Value 1N4007
SYMBOL polcap -736 -608 R0
WINDOW 3 24 56 Left 2
SYMATTR Value 100µ
SYMATTR InstName C9
SYMATTR Description Capacitor
SYMATTR Type cap
SYMATTR SpiceLine V=35 Irms=150m Rser=0.135 Lser=1.5n mfg="Würth Elektronik" pn="865230557006 WCAP-AS5H 10x10,5" type="Al electrolytic"
SYMBOL res -624 -624 R0
SYMATTR InstName R11
SYMATTR Value 47K
SYMBOL res -624 -496 R0
SYMATTR InstName R12
SYMATTR Value 47K
SYMBOL polcap -512 -480 R0
WINDOW 3 24 56 Left 2
SYMATTR Value 100µ
SYMATTR InstName C10
SYMATTR Description Capacitor
SYMATTR Type cap
SYMATTR SpiceLine V=35 Irms=150m Rser=0.135 Lser=1.5n mfg="Würth Elektronik" pn="865230557006 WCAP-AS5H 10x10,5" type="Al electrolytic"
SYMBOL res -144 -240 R0
SYMATTR InstName R1
SYMATTR Value 2.2Meg
SYMBOL res 16 -240 R0
SYMATTR InstName R2
SYMATTR Value 1Meg
SYMBOL cap -16 -272 R90
WINDOW 0 0 32 VBottom 2
WINDOW 3 32 32 VTop 2
SYMATTR InstName C1
SYMATTR Value 0.01µ
SYMATTR SpiceLine V=100 Irms=0 Rser=0.0235 Lser=457p mfg="Würth Elektronik" pn="885012008079 WCAP-CSGP 1206" type="NP0"
SYMBOL cap -128 -528 R90
WINDOW 0 0 32 VBottom 2
WINDOW 3 32 32 VTop 2
SYMATTR InstName C2
SYMATTR Value 0.01µ
SYMATTR SpiceLine V=100 Irms=0 Rser=0.0235 Lser=457p mfg="Würth Elektronik" pn="885012008079 WCAP-CSGP 1206" type="NP0"
SYMBOL cap -224 -416 R180
WINDOW 0 24 56 Left 2
WINDOW 3 24 8 Left 2
SYMATTR InstName C3
SYMATTR Value 0.01µ
SYMATTR SpiceLine V=100 Irms=0 Rser=0.0235 Lser=457p mfg="Würth Elektronik" pn="885012008079 WCAP-CSGP 1206" type="NP0"
SYMBOL cap 80 -496 R270
WINDOW 0 32 32 VTop 2
WINDOW 3 0 32 VBottom 2
SYMATTR InstName C4
SYMATTR Value 47p
SYMATTR SpiceLine V=25 Irms=0 Rser=0.2035 Lser=347p mfg="Würth Elektronik" pn="885012005044 WCAP-CSGP 0402" type="NP0"
SYMBOL res -96 -656 R90
WINDOW 0 0 56 VBottom 2
WINDOW 3 32 56 VTop 2
SYMATTR InstName R3
SYMATTR Value 4.7K
SYMBOL res 0 -528 R90
WINDOW 0 0 56 VBottom 2
WINDOW 3 32 56 VTop 2
SYMATTR InstName R4
SYMATTR Value 3.3K
SYMBOL pot 320 -656 R90
WINDOW 3 -42 -52 VRight 2
SYMATTR Value Rtot=100K wiper={GAIN}
SYMATTR InstName U3
SYMBOL cap 400 -656 R90
WINDOW 0 0 32 VBottom 2
WINDOW 3 32 32 VTop 2
SYMATTR InstName C5
SYMATTR Value 0.1µ
SYMATTR SpiceLine V=100 Irms=0 Rser=0.0147 Lser=551p mfg="Würth Elektronik" pn="885012208118 WCAP-CSGP 1206" type="X7R"
SYMBOL res 544 -656 R90
WINDOW 0 0 56 VBottom 2
WINDOW 3 32 56 VTop 2
SYMATTR InstName R5
SYMATTR Value 10K
SYMBOL res 704 -656 R90
WINDOW 0 0 56 VBottom 2
WINDOW 3 32 56 VTop 2
SYMATTR InstName R6
SYMATTR Value 6.8K
SYMBOL diode 784 -528 R180
WINDOW 0 24 64 Left 2
WINDOW 3 24 0 Left 2
SYMATTR InstName D1
SYMATTR Value 1N4148
SYMBOL diode 784 -416 R180
WINDOW 0 24 64 Left 2
WINDOW 3 24 0 Left 2
SYMATTR InstName D2
SYMATTR Value 1N4148
SYMBOL diode 848 -592 R0
SYMATTR InstName D3
SYMATTR Value 1N4148
SYMBOL diode 848 -480 R0
SYMATTR InstName D4
SYMATTR Value 1N4148
SYMBOL res 704 -400 R90
WINDOW 0 0 56 VBottom 2
WINDOW 3 32 56 VTop 2
SYMATTR InstName R7
SYMATTR Value 220K
SYMBOL res 976 -240 R90
WINDOW 0 0 56 VBottom 2
WINDOW 3 32 56 VTop 2
SYMATTR InstName R8
SYMATTR Value 1K
SYMBOL pot 960 -192 R0
SYMATTR InstName U4
SYMATTR Value Rtot=25K wiper={TONE}
SYMBOL cap 960 -32 R0
SYMATTR InstName C6
SYMATTR Value 0.01µ
SYMATTR SpiceLine V=100 Irms=0 Rser=0.0235 Lser=457p mfg="Würth Elektronik" pn="885012008079 WCAP-CSGP 1206" type="NP0"
SYMBOL cap 1440 -32 R0
SYMATTR InstName C7
SYMATTR Value 0.01µ
SYMATTR SpiceLine V=100 Irms=0 Rser=0.0235 Lser=457p mfg="Würth Elektronik" pn="885012008079 WCAP-CSGP 1206" type="NP0"
SYMBOL cap 1888 -32 R90
WINDOW 0 0 32 VBottom 2
WINDOW 3 32 32 VTop 2
SYMATTR InstName C8
SYMATTR Value 0.1µ
SYMATTR SpiceLine V=100 Irms=0 Rser=0.0115 Lser=371p mfg="Würth Elektronik" pn="885012207128 WCAP-CSGP 0805" type="X7R"
SYMBOL res 1440 -144 R90
WINDOW 0 0 56 VBottom 2
WINDOW 3 32 56 VTop 2
SYMATTR InstName R9
SYMATTR Value 6.8K
SYMBOL pot 1568 -80 R0
WINDOW 3 46 -16 Left 2
SYMATTR Value Rtot=100K wiper={VOL}
SYMATTR InstName U5
SYMBOL res 1904 16 R0
SYMATTR InstName R10
SYMATTR Value 1Meg
SYMBOL voltage -448 -224 R0
WINDOW 123 24 44 Left 2
WINDOW 39 0 0 Left 0
SYMATTR Value2 AC 100m
SYMATTR InstName V2
SYMATTR Value SINE(0 100m 1000)
TEXT 224 -760 Left 2 ;GAIN
TEXT 880 -128 Left 2 ;TONE
TEXT 1616 -136 Left 2 ;VOL
TEXT 1160 -608 Left 2 !.tran 0 1 990m 10u
TEXT 1160 -560 Left 2 !.include pot.sub
TEXT 1168 -480 Left 2 !.step param GAIN 0.05 0.95 0.275
TEXT 1168 -648 Left 2 ;.ac dec 100 10 100K
TEXT 1168 -424 Left 2 !.param TONE=0.99 GAIN=0.99 VOL=0.95
