Version 4
SHEET 1 4660 680
WIRE 192 -864 160 -864
WIRE 320 -864 256 -864
WIRE 3024 -768 2992 -768
WIRE 3136 -768 3104 -768
WIRE -208 -752 -272 -752
WIRE -112 -752 -144 -752
WIRE 0 -752 -32 -752
WIRE 160 -752 160 -864
WIRE 160 -752 80 -752
WIRE 192 -752 160 -752
WIRE 320 -752 320 -864
WIRE 320 -752 272 -752
WIRE 80 -720 80 -752
WIRE 0 -672 0 -752
WIRE 32 -672 0 -672
WIRE 3056 -640 3056 -656
WIRE 224 -624 224 -640
WIRE 2992 -624 2992 -768
WIRE 3024 -624 2992 -624
WIRE 160 -608 160 -752
WIRE 192 -608 160 -608
WIRE 3136 -608 3136 -768
WIRE 3136 -608 3088 -608
WIRE 3200 -608 3136 -608
WIRE 3312 -608 3264 -608
WIRE 3392 -608 3312 -608
WIRE 320 -592 320 -752
WIRE 320 -592 256 -592
WIRE 464 -592 320 -592
WIRE 2896 -592 544 -592
WIRE 3024 -592 2896 -592
WIRE -368 -576 -400 -576
WIRE -240 -576 -288 -576
WIRE -128 -576 -176 -576
WIRE 80 -576 80 -640
WIRE 80 -576 -128 -576
WIRE 192 -576 80 -576
WIRE 3056 -560 3056 -576
WIRE 3312 -560 3312 -608
WIRE -128 -544 -128 -576
WIRE 224 -544 224 -560
WIRE -128 -432 -128 -464
WIRE 672 -384 208 -384
WIRE 1168 -384 672 -384
WIRE 1696 -384 1168 -384
WIRE 2192 -384 1696 -384
WIRE 2704 -384 2192 -384
WIRE 2896 -384 2896 -592
WIRE 2896 -384 2704 -384
WIRE 3216 -384 2896 -384
WIRE 3936 -384 3216 -384
WIRE 4480 -384 3936 -384
WIRE -400 -352 -400 -384
WIRE 208 -336 208 -384
WIRE 672 -336 672 -384
WIRE 1168 -336 1168 -384
WIRE 1696 -336 1696 -384
WIRE 2192 -336 2192 -384
WIRE 2704 -336 2704 -384
WIRE 3216 -336 3216 -384
WIRE 3936 -336 3936 -384
WIRE 4480 -336 4480 -384
WIRE 160 -304 112 -304
WIRE 624 -304 576 -304
WIRE 1120 -304 1072 -304
WIRE 1648 -304 1600 -304
WIRE 2144 -304 2096 -304
WIRE 2656 -304 2608 -304
WIRE 3168 -304 3120 -304
WIRE 3888 -304 3840 -304
WIRE 4432 -304 4384 -304
WIRE -400 -256 -400 -272
WIRE 208 -224 208 -256
WIRE 672 -224 672 -256
WIRE 672 -224 208 -224
WIRE 1168 -224 1168 -256
WIRE 1168 -224 672 -224
WIRE 1696 -224 1696 -256
WIRE 1696 -224 1168 -224
WIRE 2192 -224 2192 -256
WIRE 2192 -224 1696 -224
WIRE 2704 -224 2704 -256
WIRE 2704 -224 2192 -224
WIRE 2992 -224 2992 -624
WIRE 2992 -224 2704 -224
WIRE 3216 -224 3216 -256
WIRE 3216 -224 2992 -224
WIRE 3936 -224 3936 -256
WIRE 3936 -224 3216 -224
WIRE 4480 -224 4480 -256
WIRE 4480 -224 3936 -224
WIRE 112 -144 112 -304
WIRE 576 -144 576 -304
WIRE 1072 -144 1072 -304
WIRE 1600 -144 1600 -304
WIRE 2096 -144 2096 -304
WIRE 2608 -144 2608 -304
WIRE 3120 -144 3120 -304
WIRE 3840 -144 3840 -304
WIRE 4384 -144 4384 -304
WIRE -400 0 -400 -32
WIRE 16 0 0 0
WIRE 112 0 112 -80
WIRE 112 0 80 0
WIRE 144 0 112 0
WIRE 256 0 224 0
WIRE 304 0 256 0
WIRE 480 0 464 0
WIRE 576 0 576 -80
WIRE 576 0 544 0
WIRE 608 0 576 0
WIRE 720 0 688 0
WIRE 768 0 720 0
WIRE 976 0 960 0
WIRE 1072 0 1072 -80
WIRE 1072 0 1040 0
WIRE 1104 0 1072 0
WIRE 1216 0 1184 0
WIRE 1264 0 1216 0
WIRE 1504 0 1488 0
WIRE 1600 0 1600 -80
WIRE 1600 0 1568 0
WIRE 1632 0 1600 0
WIRE 1744 0 1712 0
WIRE 1792 0 1744 0
WIRE 2000 0 1984 0
WIRE 2096 0 2096 -80
WIRE 2096 0 2064 0
WIRE 2128 0 2096 0
WIRE 2240 0 2208 0
WIRE 2288 0 2240 0
WIRE 2512 0 2496 0
WIRE 2608 0 2608 -80
WIRE 2608 0 2576 0
WIRE 2640 0 2608 0
WIRE 2752 0 2720 0
WIRE 2800 0 2752 0
WIRE 3024 0 3008 0
WIRE 3120 0 3120 -80
WIRE 3120 0 3088 0
WIRE 3152 0 3120 0
WIRE 3264 0 3232 0
WIRE 3312 0 3264 0
WIRE 3744 0 3728 0
WIRE 3840 0 3840 -80
WIRE 3840 0 3808 0
WIRE 3872 0 3840 0
WIRE 3984 0 3952 0
WIRE 4032 0 3984 0
WIRE 4288 0 4272 0
WIRE 4384 0 4384 -80
WIRE 4384 0 4352 0
WIRE 4416 0 4384 0
WIRE 4528 0 4496 0
WIRE 4576 0 4528 0
WIRE 256 64 256 0
WIRE 256 64 96 64
WIRE 720 64 720 0
WIRE 720 64 560 64
WIRE 1216 64 1216 0
WIRE 1216 64 1056 64
WIRE 1744 64 1744 0
WIRE 1744 64 1584 64
WIRE 2240 64 2240 0
WIRE 2240 64 2080 64
WIRE 2752 64 2752 0
WIRE 2752 64 2592 64
WIRE 3264 64 3264 0
WIRE 3264 64 3104 64
WIRE 3984 64 3984 0
WIRE 3984 64 3824 64
WIRE 4528 64 4528 0
WIRE 4528 64 4368 64
WIRE -400 112 -400 80
WIRE -320 112 -400 112
WIRE -400 144 -400 112
WIRE 176 144 176 128
WIRE 640 144 640 128
WIRE 1136 144 1136 128
WIRE 1664 144 1664 128
WIRE 2160 144 2160 128
WIRE 2672 144 2672 128
WIRE 3184 144 3184 128
WIRE 3904 144 3904 128
WIRE 4448 144 4448 128
WIRE 96 160 96 64
WIRE 144 160 96 160
WIRE 560 160 560 64
WIRE 608 160 560 160
WIRE 1056 160 1056 64
WIRE 1104 160 1056 160
WIRE 1584 160 1584 64
WIRE 1632 160 1584 160
WIRE 2080 160 2080 64
WIRE 2128 160 2080 160
WIRE 2592 160 2592 64
WIRE 2640 160 2592 160
WIRE 3104 160 3104 64
WIRE 3152 160 3104 160
WIRE 3824 160 3824 64
WIRE 3872 160 3824 160
WIRE 4368 160 4368 64
WIRE 4416 160 4368 160
WIRE 256 176 256 64
WIRE 256 176 208 176
WIRE 720 176 720 64
WIRE 720 176 672 176
WIRE 1216 176 1216 64
WIRE 1216 176 1168 176
WIRE 1744 176 1744 64
WIRE 1744 176 1696 176
WIRE 2240 176 2240 64
WIRE 2240 176 2192 176
WIRE 2752 176 2752 64
WIRE 2752 176 2704 176
WIRE 3264 176 3264 64
WIRE 3264 176 3216 176
WIRE 3984 176 3984 64
WIRE 3984 176 3936 176
WIRE 4528 176 4528 64
WIRE 4528 176 4480 176
WIRE 0 192 0 0
WIRE 144 192 0 192
WIRE 304 192 304 0
WIRE 464 192 464 0
WIRE 608 192 464 192
WIRE 768 192 768 0
WIRE 960 192 960 0
WIRE 1104 192 960 192
WIRE 1264 192 1264 0
WIRE 1488 192 1488 0
WIRE 1632 192 1488 192
WIRE 1792 192 1792 0
WIRE 1984 192 1984 0
WIRE 2128 192 1984 192
WIRE 2288 192 2288 0
WIRE 2496 192 2496 0
WIRE 2640 192 2496 192
WIRE 2800 192 2800 0
WIRE 3008 192 3008 0
WIRE 3152 192 3008 192
WIRE 3312 192 3312 0
WIRE 3728 192 3728 0
WIRE 3872 192 3728 192
WIRE 4032 192 4032 0
WIRE 4272 192 4272 0
WIRE 4416 192 4272 192
WIRE 4576 192 4576 0
WIRE 0 208 0 192
WIRE 464 208 464 192
WIRE 960 208 960 192
WIRE 1488 208 1488 192
WIRE 1984 208 1984 192
WIRE 2496 208 2496 192
WIRE 3008 208 3008 192
WIRE 3728 208 3728 192
WIRE 4272 208 4272 192
WIRE 176 224 176 208
WIRE 640 224 640 208
WIRE 1136 224 1136 208
WIRE 1664 224 1664 208
WIRE 2160 224 2160 208
WIRE 2672 224 2672 208
WIRE 3184 224 3184 208
WIRE 3904 224 3904 208
WIRE 4448 224 4448 208
WIRE -400 256 -400 224
WIRE -400 256 -464 256
WIRE 0 304 0 288
WIRE 304 304 304 272
WIRE 464 304 464 288
WIRE 768 304 768 272
WIRE 960 304 960 288
WIRE 1264 304 1264 272
WIRE 1488 304 1488 288
WIRE 1792 304 1792 272
WIRE 1984 304 1984 288
WIRE 2288 304 2288 272
WIRE 2496 304 2496 288
WIRE 2800 304 2800 272
WIRE 3008 304 3008 288
WIRE 3312 304 3312 272
WIRE 3728 304 3728 288
WIRE 4032 304 4032 272
WIRE 4272 304 4272 288
WIRE 4576 304 4576 272
FLAG -464 256 0
FLAG -320 112 Vcc/2
FLAG 0 304 Vcc/2
FLAG 464 304 Vcc/2
FLAG -400 -32 Vcc
FLAG 176 224 0
FLAG 640 224 0
FLAG 176 128 Vcc
FLAG 640 128 Vcc
FLAG 224 -544 0
FLAG 224 -640 Vcc
FLAG 3056 -560 0
FLAG 3056 -656 Vcc
FLAG -400 -256 0
FLAG -400 -384 VIN
FLAG -400 -576 VIN
FLAG -128 -432 Vcc/2
FLAG 960 304 Vcc/2
FLAG 1136 224 0
FLAG 1136 128 Vcc
FLAG 1488 304 Vcc/2
FLAG 1664 224 0
FLAG 1664 128 Vcc
FLAG 1984 304 Vcc/2
FLAG 2160 224 0
FLAG 2160 128 Vcc
FLAG 2496 304 Vcc/2
FLAG 2672 224 0
FLAG 2672 128 Vcc
FLAG 3312 -480 Vcc/2
FLAG -272 -752 0
FLAG 304 304 0
FLAG 768 304 0
FLAG 1264 304 0
FLAG 1792 304 0
FLAG 2288 304 0
FLAG 2800 304 0
FLAG 3392 -608 VOUT
FLAG 3728 304 Vcc/2
FLAG 3904 224 0
FLAG 3904 128 Vcc
FLAG 4032 304 0
FLAG 4272 304 Vcc/2
FLAG 4448 224 0
FLAG 4448 128 Vcc
FLAG 4576 304 0
FLAG 3008 304 Vcc/2
FLAG 3184 224 0
FLAG 3184 128 Vcc
FLAG 3312 304 0
SYMBOL TL072 176 176 R0
SYMATTR InstName U1
SYMBOL voltage -400 -16 R0
SYMATTR InstName V1
SYMATTR Value 4.5
SYMBOL voltage -400 128 R0
SYMATTR InstName V2
SYMATTR Value 4.5
SYMBOL res -16 192 R0
SYMATTR InstName R1
SYMATTR Value 82K
SYMBOL cap 80 -16 R90
WINDOW 0 0 32 VBottom 2
WINDOW 3 32 32 VTop 2
SYMATTR InstName C1
SYMATTR Value 0.056µ
SYMATTR SpiceLine V=16 Irms=0 Rser=0 Lser=0 mfg="Murata" pn="GCM155R71C563KA55" type="X7R"
SYMBOL res 240 -16 R90
WINDOW 0 0 56 VBottom 2
WINDOW 3 32 56 VTop 2
SYMATTR InstName R2
SYMATTR Value 330
SYMBOL res 288 176 R0
SYMATTR InstName R3
SYMATTR Value 470K
SYMBOL polcap 96 -144 R0
WINDOW 3 24 56 Left 2
SYMATTR Value 1.5µ
SYMATTR InstName C2
SYMATTR Description Capacitor
SYMATTR Type cap
SYMATTR SpiceLine V=16 Irms=120m Rser=6.4 Lser=0 mfg="Vishay" pn="293D155M016B" type="Tantalum"
SYMBOL TL072 640 176 R0
SYMATTR InstName U2
SYMBOL res 448 192 R0
SYMATTR InstName R4
SYMATTR Value 82K
SYMBOL cap 544 -16 R90
WINDOW 0 0 32 VBottom 2
WINDOW 3 32 32 VTop 2
SYMATTR InstName C3
SYMATTR Value 0.033µ
SYMATTR SpiceLine V=16 Irms=0 Rser=0.0546 Lser=715p mfg="Würth Elektronik" pn="885012208028 WCAP-CSGP 1206" type="X7R"
SYMBOL res 704 -16 R90
WINDOW 0 0 56 VBottom 2
WINDOW 3 32 56 VTop 2
SYMATTR InstName R5
SYMATTR Value 330
SYMBOL res 752 176 R0
SYMATTR InstName R6
SYMATTR Value 470K
SYMBOL polcap 560 -144 R0
WINDOW 3 24 56 Left 2
SYMATTR Value 0.68µ
SYMATTR InstName C4
SYMATTR Description Capacitor
SYMATTR Type cap
SYMATTR SpiceLine V=16 Irms=120m Rser=6.4 Lser=0 mfg="Vishay" pn="293D155M016B" type="Tantalum"
SYMBOL pot 224 -240 R180
WINDOW 3 119 31 Left 2
SYMATTR Value Rtot=10K wiper={P1}
SYMATTR InstName U3
SYMBOL pot 688 -240 R180
WINDOW 3 119 31 Left 2
SYMATTR Value Rtot=10K wiper={P2}
SYMATTR InstName U4
SYMBOL TL072 224 -592 R0
SYMATTR InstName U5
SYMBOL TL072 3056 -608 R0
SYMATTR InstName U6
SYMBOL res -272 -592 R90
WINDOW 0 0 56 VBottom 2
WINDOW 3 32 56 VTop 2
SYMATTR InstName R7
SYMATTR Value 10K
SYMBOL res 288 -768 R90
WINDOW 0 0 56 VBottom 2
WINDOW 3 32 56 VTop 2
SYMATTR InstName R8
SYMATTR Value 10K
SYMBOL res -128 -736 R270
WINDOW 0 32 56 VTop 2
WINDOW 3 0 56 VBottom 2
SYMATTR InstName R9
SYMATTR Value 2.2K
SYMBOL voltage -400 -368 R0
WINDOW 123 24 44 Left 2
WINDOW 39 0 0 Left 0
SYMATTR Value2 AC 1
SYMATTR InstName V3
SYMATTR Value SINE(0 1 100)
SYMBOL res 3120 -784 R90
WINDOW 0 0 56 VBottom 2
WINDOW 3 32 56 VTop 2
SYMATTR InstName R10
SYMATTR Value 10K
SYMBOL res 560 -608 R90
WINDOW 0 0 56 VBottom 2
WINDOW 3 32 56 VTop 2
SYMATTR InstName R11
SYMATTR Value 10K
SYMBOL res -144 -560 R0
SYMATTR InstName R12
SYMATTR Value 470K
SYMBOL cap -176 -592 R90
WINDOW 0 0 32 VBottom 2
WINDOW 3 32 32 VTop 2
SYMATTR InstName C5
SYMATTR Value 0.22µ
SYMATTR SpiceLine V=16 Irms=0 Rser=0.0511 Lser=447p mfg="Würth Elektronik" pn="885012208029 WCAP-CSGP 1206" type="X7R"
SYMBOL TL072 1136 176 R0
SYMATTR InstName U7
SYMBOL res 944 192 R0
SYMATTR InstName R13
SYMATTR Value 100K
SYMBOL cap 1040 -16 R90
WINDOW 0 0 32 VBottom 2
WINDOW 3 32 32 VTop 2
SYMATTR InstName C6
SYMATTR Value 0.015µ
SYMATTR SpiceLine V=16 Irms=0 Rser=0 Lser=0 mfg="Murata" pn="GCM155R71C563KA55" type="X7R"
SYMBOL res 1200 -16 R90
WINDOW 0 0 56 VBottom 2
WINDOW 3 32 56 VTop 2
SYMATTR InstName R14
SYMATTR Value 330
SYMBOL res 1248 176 R0
SYMATTR InstName R15
SYMATTR Value 470K
SYMBOL polcap 1056 -144 R0
WINDOW 3 24 56 Left 2
SYMATTR Value 0.33µ
SYMATTR InstName C7
SYMATTR Description Capacitor
SYMATTR Type cap
SYMATTR SpiceLine V=16 Irms=120m Rser=6.4 Lser=0 mfg="Vishay" pn="293D155M016B" type="Tantalum"
SYMBOL pot 1184 -240 R180
WINDOW 3 119 31 Left 2
SYMATTR Value Rtot=10K wiper={P3}
SYMATTR InstName U8
SYMBOL TL072 1664 176 R0
SYMATTR InstName U9
SYMBOL res 1472 192 R0
SYMATTR InstName R16
SYMATTR Value 100K
SYMBOL cap 1568 -16 R90
WINDOW 0 0 32 VBottom 2
WINDOW 3 32 32 VTop 2
SYMATTR InstName C8
SYMATTR Value 0.0082µ
SYMATTR SpiceLine V=16 Irms=0 Rser=0 Lser=0 mfg="Murata" pn="GCM155R71C563KA55" type="X7R"
SYMBOL res 1728 -16 R90
WINDOW 0 0 56 VBottom 2
WINDOW 3 32 56 VTop 2
SYMATTR InstName R17
SYMATTR Value 330
SYMBOL res 1776 176 R0
SYMATTR InstName R18
SYMATTR Value 470K
SYMBOL polcap 1584 -144 R0
WINDOW 3 24 56 Left 2
SYMATTR Value 0.15µ
SYMATTR InstName C9
SYMATTR Description Capacitor
SYMATTR Type cap
SYMATTR SpiceLine V=16 Irms=120m Rser=6.4 Lser=0 mfg="Vishay" pn="293D155M016B" type="Tantalum"
SYMBOL pot 1712 -240 R180
WINDOW 3 119 31 Left 2
SYMATTR Value Rtot=10K wiper={P4}
SYMATTR InstName U10
SYMBOL TL072 2160 176 R0
SYMATTR InstName U11
SYMBOL res 1968 192 R0
SYMATTR InstName R19
SYMATTR Value 82k
SYMBOL cap 2064 -16 R90
WINDOW 0 0 32 VBottom 2
WINDOW 3 32 32 VTop 2
SYMATTR InstName C10
SYMATTR Value 0.0039µ
SYMATTR SpiceLine V=16 Irms=0 Rser=0 Lser=0 mfg="Murata" pn="GCM155R71C563KA55" type="X7R"
SYMBOL res 2224 -16 R90
WINDOW 0 0 56 VBottom 2
WINDOW 3 32 56 VTop 2
SYMATTR InstName R20
SYMATTR Value 330
SYMBOL res 2272 176 R0
SYMATTR InstName R21
SYMATTR Value 470K
SYMBOL polcap 2080 -144 R0
WINDOW 3 24 56 Left 2
SYMATTR Value 0.1µ
SYMATTR InstName C11
SYMATTR Description Capacitor
SYMATTR Type cap
SYMATTR SpiceLine V=16 Irms=120m Rser=6.4 Lser=0 mfg="Vishay" pn="293D155M016B" type="Tantalum"
SYMBOL pot 2208 -240 R180
WINDOW 3 119 31 Left 2
SYMATTR Value Rtot=10K wiper={P5}
SYMATTR InstName U12
SYMBOL TL072 2672 176 R0
SYMATTR InstName U13
SYMBOL res 2480 192 R0
SYMATTR InstName R22
SYMATTR Value 82k
SYMBOL cap 2576 -16 R90
WINDOW 0 0 32 VBottom 2
WINDOW 3 32 32 VTop 2
SYMATTR InstName C12
SYMATTR Value 0.0022µ
SYMATTR SpiceLine V=16 Irms=0 Rser=0 Lser=0 mfg="Murata" pn="GCM155R71C563KA55" type="X7R"
SYMBOL res 2736 -16 R90
WINDOW 0 0 56 VBottom 2
WINDOW 3 32 56 VTop 2
SYMATTR InstName R23
SYMATTR Value 330
SYMBOL res 2784 176 R0
SYMATTR InstName R24
SYMATTR Value 470K
SYMBOL polcap 2592 -144 R0
WINDOW 3 24 56 Left 2
SYMATTR Value 0.039µ
SYMATTR InstName C13
SYMATTR Description Capacitor
SYMATTR Type cap
SYMATTR SpiceLine V=16 Irms=120m Rser=6.4 Lser=0 mfg="Vishay" pn="293D155M016B" type="Tantalum"
SYMBOL pot 2720 -240 R180
WINDOW 3 119 31 Left 2
SYMATTR Value Rtot=10K wiper={P6}
SYMATTR InstName U14
SYMBOL cap 256 -880 R90
WINDOW 0 0 32 VBottom 2
WINDOW 3 32 32 VTop 2
SYMATTR InstName C14
SYMATTR Value 270p
SYMATTR SpiceLine V=25 Irms=0 Rser=0 Lser=0 mfg="Murata" pn="GRM0335C1E271JA01" type="C0G"
SYMBOL polcap 3264 -624 R90
WINDOW 0 0 32 VBottom 2
WINDOW 3 32 32 VTop 2
SYMATTR InstName C15
SYMATTR Value 1µ
SYMATTR Description Capacitor
SYMATTR Type cap
SYMATTR SpiceLine V=50 Irms=8.4m Rser=1.5 Lser=1.4p mfg="Würth Elektronik" pn="865090640005 WCAP-ASLU 4x5,5" type="Al electrolytic"
SYMBOL res 3296 -576 R0
SYMATTR InstName R25
SYMATTR Value 1Meg
SYMBOL pot 96 -736 M0
WINDOW 3 118 62 Left 2
SYMATTR Value Rtot=10K wiper={G}
SYMATTR InstName U16
SYMBOL polcap -144 -768 R90
WINDOW 0 0 32 VBottom 2
WINDOW 3 32 32 VTop 2
SYMATTR InstName C17
SYMATTR Value 10µ
SYMATTR Description Capacitor
SYMATTR Type cap
SYMATTR SpiceLine V=16 Irms=0 Rser=2.8 Lser=0 mfg="AVX" pn="TAJC106M016" type="Tantalum"
SYMBOL TL072 3904 176 R0
SYMATTR InstName U17
SYMBOL res 3712 192 R0
SYMATTR InstName R27
SYMATTR Value 82K
SYMBOL cap 3808 -16 R90
WINDOW 0 0 32 VBottom 2
WINDOW 3 32 32 VTop 2
SYMATTR InstName C18
SYMATTR Value 0.091µ
SYMATTR SpiceLine V=16 Irms=0 Rser=0 Lser=0 mfg="Murata" pn="GCM155R71C563KA55" type="X7R"
SYMBOL res 3968 -16 R90
WINDOW 0 0 56 VBottom 2
WINDOW 3 32 56 VTop 2
SYMATTR InstName R28
SYMATTR Value 330
SYMBOL res 4016 176 R0
SYMATTR InstName R29
SYMATTR Value 470K
SYMBOL polcap 3824 -144 R0
WINDOW 3 24 56 Left 2
SYMATTR Value 2.7µ
SYMATTR InstName C19
SYMATTR Description Capacitor
SYMATTR Type cap
SYMATTR SpiceLine V=16 Irms=120m Rser=6.4 Lser=0 mfg="Vishay" pn="293D155M016B" type="Tantalum"
SYMBOL pot 3952 -240 R180
WINDOW 3 119 31 Left 2
SYMATTR Value Rtot=10K wiper={P60}
SYMATTR InstName U18
SYMBOL TL072 4448 176 R0
SYMATTR InstName U19
SYMBOL res 4256 192 R0
SYMATTR InstName R30
SYMATTR Value 82K
SYMBOL cap 4352 -16 R90
WINDOW 0 0 32 VBottom 2
WINDOW 3 32 32 VTop 2
SYMATTR InstName C20
SYMATTR Value 0.181µ
SYMATTR SpiceLine V=16 Irms=0 Rser=0 Lser=0 mfg="Murata" pn="GCM155R71C563KA55" type="X7R"
SYMBOL res 4512 -16 R90
WINDOW 0 0 56 VBottom 2
WINDOW 3 32 56 VTop 2
SYMATTR InstName R31
SYMATTR Value 330
SYMBOL res 4560 176 R0
SYMATTR InstName R32
SYMATTR Value 470K
SYMBOL polcap 4368 -144 R0
WINDOW 3 24 56 Left 2
SYMATTR Value 5.6µ
SYMATTR InstName C21
SYMATTR Description Capacitor
SYMATTR Type cap
SYMATTR SpiceLine V=16 Irms=120m Rser=6.4 Lser=0 mfg="Vishay" pn="293D155M016B" type="Tantalum"
SYMBOL pot 4496 -240 R180
WINDOW 3 119 31 Left 2
SYMATTR Value Rtot=10K wiper={P30}
SYMATTR InstName U20
SYMBOL TL072 3184 176 R0
SYMATTR InstName U21
SYMBOL res 2992 192 R0
SYMATTR InstName R33
SYMATTR Value 82k
SYMBOL cap 3088 -16 R90
WINDOW 0 0 32 VBottom 2
WINDOW 3 32 32 VTop 2
SYMATTR InstName C22
SYMATTR Value 0.0011µ
SYMATTR SpiceLine V=16 Irms=0 Rser=0 Lser=0 mfg="Murata" pn="GCM155R71C563KA55" type="X7R"
SYMBOL res 3248 -16 R90
WINDOW 0 0 56 VBottom 2
WINDOW 3 32 56 VTop 2
SYMATTR InstName R34
SYMATTR Value 330
SYMBOL res 3296 176 R0
SYMATTR InstName R35
SYMATTR Value 470K
SYMBOL polcap 3104 -144 R0
WINDOW 3 24 56 Left 2
SYMATTR Value 0.022µ
SYMATTR InstName C23
SYMATTR Description Capacitor
SYMATTR Type cap
SYMATTR SpiceLine V=16 Irms=120m Rser=6.4 Lser=0 mfg="Vishay" pn="293D155M016B" type="Tantalum"
SYMBOL pot 3232 -240 R180
WINDOW 3 119 31 Left 2
SYMATTR Value Rtot=10K wiper={P7}
SYMATTR InstName U22
TEXT 1192 -896 Left 2 ;.tran 0 500m 450m 10u
TEXT 1192 -840 Left 2 !.include pot.sub
TEXT 1192 -704 Left 2 !.param G=0.5 P30=0.99 P60=0.01 P1=0.5 P2=0.5 P3=0.5 P4=0.5 P5=0.5 P6=0.5 P7=0.5
TEXT 1192 -944 Left 2 !.ac dec 100 1 100K
TEXT 248 -296 Left 2 ;100Hz
TEXT 704 -296 Left 2 ;200Hz
TEXT 1208 -296 Left 2 ;400Hz
TEXT 1736 -296 Left 2 ;800Hz
TEXT 2232 -296 Left 2 ;1.6kHz
TEXT 2744 -296 Left 2 ;3.2kHz
TEXT 3248 -296 Left 2 ;6.4kHz
TEXT -56 448 Left 2 ;To scale Fc by k, scale C1 and C2 by 1/k\nQ = C1/C2\n \nTo ajust Q and keep Fc: C1*b, C2/b\n \nhttps://www.youtube.com/watch?v=i3xWgun-zb0
TEXT 3976 -296 Left 2 ;60Hz
TEXT 4520 -296 Left 2 ;30Hz
TEXT 1192 -760 Left 2 !.step param P30 .1 .9 .2
