Version 4
SHEET 1 3400 680
WIRE 192 -864 160 -864
WIRE 320 -864 256 -864
WIRE -304 -752 -368 -752
WIRE -208 -752 -240 -752
WIRE 0 -752 -128 -752
WIRE 160 -752 160 -864
WIRE 160 -752 80 -752
WIRE 192 -752 160 -752
WIRE 320 -752 320 -864
WIRE 320 -752 272 -752
WIRE -928 -736 -928 -768
WIRE -640 -720 -640 -752
WIRE 80 -720 80 -752
WIRE 0 -672 0 -752
WIRE 32 -672 0 -672
WIRE -928 -624 -928 -656
WIRE -848 -624 -928 -624
WIRE -640 -624 -640 -640
WIRE 224 -624 224 -640
WIRE 160 -608 160 -752
WIRE 192 -608 160 -608
WIRE -928 -592 -928 -624
WIRE 320 -592 320 -752
WIRE 320 -592 256 -592
WIRE -368 -576 -400 -576
WIRE -240 -576 -288 -576
WIRE -128 -576 -176 -576
WIRE 80 -576 80 -640
WIRE 80 -576 -128 -576
WIRE 192 -576 80 -576
WIRE -128 -544 -128 -576
WIRE 224 -544 224 -560
WIRE -928 -480 -928 -512
WIRE -928 -480 -992 -480
WIRE 576 -480 544 -480
WIRE 704 -480 640 -480
WIRE -128 -432 -128 -464
WIRE 96 -368 32 -368
WIRE 192 -368 160 -368
WIRE 384 -368 272 -368
WIRE 544 -368 544 -480
WIRE 544 -368 464 -368
WIRE 592 -368 544 -368
WIRE 704 -368 704 -480
WIRE 704 -368 672 -368
WIRE 464 -336 464 -368
WIRE 384 -288 384 -368
WIRE 416 -288 384 -288
WIRE 608 -240 608 -256
WIRE 544 -224 544 -368
WIRE 576 -224 544 -224
WIRE 704 -208 704 -368
WIRE 704 -208 640 -208
WIRE 16 -192 -16 -192
WIRE 144 -192 96 -192
WIRE 256 -192 208 -192
WIRE 464 -192 464 -256
WIRE 464 -192 256 -192
WIRE 576 -192 464 -192
WIRE 256 -160 256 -192
WIRE 608 -160 608 -176
WIRE 256 -48 256 -80
FLAG -992 -480 0
FLAG -848 -624 Vcc/2
FLAG -928 -768 Vcc
FLAG 224 -544 0
FLAG 224 -640 Vcc
FLAG -640 -624 0
FLAG -640 -752 VIN
FLAG -400 -576 VIN
FLAG -128 -432 Vcc/2
FLAG -368 -752 0
FLAG 608 -160 0
FLAG 608 -256 Vcc
FLAG -16 -192 VIN
FLAG 256 -48 Vcc/2
FLAG 32 -368 0
DATAFLAG 48 -576 ""
DATAFLAG 432 -192 ""
DATAFLAG 384 -368 ""
SYMBOL voltage -928 -752 R0
SYMATTR InstName V1
SYMATTR Value 4.5
SYMBOL voltage -928 -608 R0
SYMATTR InstName V2
SYMATTR Value 4.5
SYMBOL TL072 224 -592 R0
SYMATTR InstName U5
SYMBOL res -272 -592 R90
WINDOW 0 0 56 VBottom 2
WINDOW 3 32 56 VTop 2
SYMATTR InstName R7
SYMATTR Value 10K
SYMBOL res 288 -768 R90
WINDOW 0 0 56 VBottom 2
WINDOW 3 32 56 VTop 2
SYMATTR InstName R8
SYMATTR Value 10K
SYMBOL res -224 -736 R270
WINDOW 0 32 56 VTop 2
WINDOW 3 0 56 VBottom 2
SYMATTR InstName R9
SYMATTR Value 2.2K
SYMBOL voltage -640 -736 R0
WINDOW 123 24 44 Left 2
WINDOW 39 0 0 Left 0
SYMATTR Value2 AC 1
SYMATTR InstName V3
SYMATTR Value SINE(0 1 100)
SYMBOL res -144 -560 R0
SYMATTR InstName R12
SYMATTR Value 470K
SYMBOL cap -176 -592 R90
WINDOW 0 0 32 VBottom 2
WINDOW 3 32 32 VTop 2
SYMATTR InstName C5
SYMATTR Value 0.047µ
SYMATTR SpiceLine V=16 Irms=0 Rser=0.0511 Lser=447p mfg="Würth Elektronik" pn="885012208029 WCAP-CSGP 1206" type="X7R"
SYMBOL cap 256 -880 R90
WINDOW 0 0 32 VBottom 2
WINDOW 3 32 32 VTop 2
SYMATTR InstName C14
SYMATTR Value 270p
SYMATTR SpiceLine V=25 Irms=0 Rser=0 Lser=0 mfg="Murata" pn="GRM0335C1E271JA01" type="C0G"
SYMBOL pot 96 -736 M0
WINDOW 3 118 62 Left 2
SYMATTR Value Rtot=10K wiper={G}
SYMATTR InstName U16
SYMBOL polcap -240 -768 R90
WINDOW 0 0 32 VBottom 2
WINDOW 3 32 32 VTop 2
SYMATTR InstName C17
SYMATTR Value 10µ
SYMATTR Description Capacitor
SYMATTR Type cap
SYMATTR SpiceLine V=16 Irms=0 Rser=2.8 Lser=0 mfg="AVX" pn="TAJC106M016" type="Tantalum"
SYMBOL TL072 608 -208 R0
SYMATTR InstName U1
SYMBOL res 112 -208 R90
WINDOW 0 0 56 VBottom 2
WINDOW 3 32 56 VTop 2
SYMATTR InstName R2
SYMATTR Value 10K
SYMBOL res 176 -352 R270
WINDOW 0 32 56 VTop 2
WINDOW 3 0 56 VBottom 2
SYMATTR InstName R4
SYMATTR Value 2.2K
SYMBOL res 240 -176 R0
SYMATTR InstName R5
SYMATTR Value 470K
SYMBOL cap 208 -208 R90
WINDOW 0 0 32 VBottom 2
WINDOW 3 32 32 VTop 2
SYMATTR InstName C1
SYMATTR Value 0.047µ
SYMATTR SpiceLine V=16 Irms=0 Rser=0.0511 Lser=447p mfg="Würth Elektronik" pn="885012208029 WCAP-CSGP 1206" type="X7R"
SYMBOL pot 480 -352 M0
WINDOW 3 118 62 Left 2
SYMATTR Value Rtot=10K wiper={G}
SYMATTR InstName U2
SYMBOL res 688 -384 R90
WINDOW 0 0 56 VBottom 2
WINDOW 3 32 56 VTop 2
SYMATTR InstName R1
SYMATTR Value 10K
SYMBOL polcap 160 -384 R90
WINDOW 0 0 32 VBottom 2
WINDOW 3 32 32 VTop 2
SYMATTR InstName C3
SYMATTR Value 10µ
SYMATTR Description Capacitor
SYMATTR Type cap
SYMATTR SpiceLine V=16 Irms=0 Rser=2.8 Lser=0 mfg="AVX" pn="TAJC106M016" type="Tantalum"
TEXT -1048 -312 Left 2 !.tran 0 500m 450m 10u
TEXT -1048 -272 Left 2 !.include pot.sub
TEXT -1048 -240 Left 2 !.param P1=0.95 P2=0.95 P3=0.95 P4=0.95 P5=0.95 P6=0.95 P7=0.95 G=0.05
TEXT -1048 -360 Left 2 ;.ac dec 100 10 100K
TEXT -1048 -200 Left 2 !.step param G 0.1 0.9 0.2
