Version 4
SHEET 1 880 680
SYMBOL OpAmps\\AD8510 224 96 R0
SYMATTR InstName U1
SYMBOL TL072 80 160 R0
SYMATTR InstName U2
