Version 4
SHEET 1 880 680
WIRE -80 -96 -336 -96
WIRE 240 -96 -80 -96
WIRE -336 -80 -336 -96
WIRE -80 -48 -80 -96
WIRE -64 -48 -80 -48
WIRE 240 -48 240 -96
WIRE 240 -48 224 -48
WIRE -336 16 -336 0
WIRE -64 32 -304 32
WIRE 272 32 224 32
WIRE 336 32 272 32
WIRE 464 32 416 32
WIRE -304 112 -304 32
WIRE -176 112 -304 112
WIRE -64 112 -96 112
WIRE 256 112 224 112
WIRE 464 112 464 32
WIRE 464 112 336 112
WIRE -400 192 -480 192
WIRE -304 192 -304 112
WIRE -304 192 -320 192
WIRE -288 192 -304 192
WIRE -192 192 -208 192
WIRE -64 192 -192 192
WIRE 464 192 464 112
WIRE 464 192 224 192
WIRE -480 208 -480 192
WIRE -144 272 -160 272
WIRE -64 272 -80 272
WIRE 464 272 464 192
WIRE -480 304 -480 288
WIRE -64 352 -80 352
WIRE 240 352 224 352
WIRE -192 416 -192 192
WIRE 464 416 464 352
WIRE 464 416 -192 416
FLAG -336 16 0
FLAG -80 352 0
FLAG 240 352 0
FLAG -160 272 0
FLAG -480 304 0
FLAG 272 32 OUT
FLAG -480 192 IN
SYMBOL VOLTAGE -336 -96 R0
SYMATTR InstName V1
SYMATTR Value 3.3
SYMBOL FilterProducts\\LTC1563-2 80 288 R0
SYMATTR InstName U1
SYMBOL cap -80 256 R90
WINDOW 0 0 32 VBottom 2
WINDOW 3 32 32 VTop 2
SYMATTR InstName C1
SYMATTR Value .1µ
SYMBOL res -80 96 R90
WINDOW 0 0 56 VBottom 2
WINDOW 3 32 56 VTop 2
SYMATTR InstName R1
SYMATTR Value 10K
SYMBOL res -192 176 R90
WINDOW 0 0 56 VBottom 2
WINDOW 3 32 56 VTop 2
SYMATTR InstName R2
SYMATTR Value 10K
SYMBOL VOLTAGE -480 192 R0
SYMATTR InstName V2
SYMATTR Value 1.66 ac 1
SYMBOL res 240 96 M90
WINDOW 0 0 56 VBottom 2
WINDOW 3 32 56 VTop 2
SYMATTR InstName R3
SYMATTR Value 10K
SYMBOL res 320 16 M90
WINDOW 0 0 56 VBottom 2
WINDOW 3 32 56 VTop 2
SYMATTR InstName R4
SYMATTR Value 10K
SYMBOL res -304 176 R90
WINDOW 0 0 56 VBottom 2
WINDOW 3 32 56 VTop 2
SYMATTR InstName R5
SYMATTR Value 10K
SYMBOL res 448 256 R0
SYMATTR InstName R6
SYMATTR Value 10K
TEXT 344 456 Left 2 !.ac oct 10 1 100Meg
