Version 4
SHEET 1 880 680
WIRE -128 112 -384 112
WIRE 32 128 32 80
WIRE 32 128 -48 128
WIRE 208 128 112 128
WIRE 336 128 288 128
WIRE -384 160 -384 112
WIRE -128 176 -128 112
WIRE -48 176 -48 128
WIRE 32 176 32 128
WIRE 112 176 112 128
WIRE -656 256 -656 240
WIRE -656 256 -752 256
WIRE -752 272 -752 256
WIRE -656 272 -656 256
WIRE -384 272 -384 240
WIRE 336 272 336 128
WIRE -752 368 -752 336
WIRE -752 368 -800 368
WIRE -656 368 -656 352
WIRE -656 368 -752 368
WIRE -656 384 -656 368
WIRE -752 400 -752 368
WIRE -128 464 -128 416
WIRE 112 464 112 416
WIRE 112 464 -128 464
WIRE 224 464 112 464
WIRE 336 464 336 336
WIRE 336 464 304 464
WIRE -752 480 -752 464
WIRE -656 480 -656 464
WIRE -656 480 -752 480
WIRE -656 496 -656 480
WIRE -384 528 -384 496
WIRE -48 544 -48 416
WIRE 32 544 32 416
WIRE -384 624 -384 608
FLAG -656 240 5V
FLAG -800 368 0
FLAG 32 80 5V
FLAG -384 272 0
FLAG -656 496 -5V
FLAG 32 544 -5V
FLAG -384 624 0
FLAG -384 496 BIAS
FLAG -48 544 BIAS
SYMBOL OpAmps\\LT6350 -16 288 R0
SYMATTR InstName U2
SYMBOL voltage -656 256 R0
SYMATTR InstName V1
SYMATTR Value 5
SYMBOL voltage -384 144 R0
WINDOW 123 24 124 Left 2
WINDOW 39 0 0 Left 0
SYMATTR InstName V2
SYMATTR Value SINE(0 1 10K)
SYMATTR Value2 AC 1 0
SYMBOL res 304 112 R90
WINDOW 0 0 56 VBottom 2
WINDOW 3 32 56 VTop 2
SYMATTR InstName R1
SYMATTR Value 249
SYMBOL res 320 448 R90
WINDOW 0 0 56 VBottom 2
WINDOW 3 32 56 VTop 2
SYMATTR InstName R2
SYMATTR Value 249
SYMBOL voltage -656 368 R0
SYMATTR InstName V3
SYMATTR Value 5
SYMBOL voltage -384 512 R0
SYMATTR InstName V4
SYMATTR Value 0
SYMBOL cap 320 272 R0
SYMATTR InstName C1
SYMATTR Value 2200p
SYMBOL cap -768 272 R0
SYMATTR InstName C2
SYMATTR Value 0.1µ
SYMBOL cap -768 400 R0
SYMATTR InstName C3
SYMATTR Value 0.1µ
TEXT -704 -40 Left 2 !.tran 0 2m 0 1u
