Version 4
SHEET 1 880 808
WIRE -32 -16 -64 -16
WIRE -32 64 -32 -16
WIRE -32 64 -160 64
WIRE 16 64 -32 64
WIRE 512 64 16 64
WIRE 656 64 608 64
WIRE 752 64 656 64
WIRE 656 112 656 64
WIRE -160 192 -160 144
WIRE 16 192 16 144
WIRE 656 224 656 192
WIRE 656 224 464 224
WIRE 528 256 528 112
WIRE 16 336 16 272
WIRE 464 336 464 224
WIRE 480 336 464 336
WIRE 16 432 16 400
WIRE 448 432 16 432
WIRE 528 432 528 352
WIRE 528 432 448 432
WIRE 448 464 448 432
FLAG 448 464 0
FLAG -160 192 0
FLAG 752 64 Out
IOPIN 752 64 Out
FLAG -64 -16 VIn
IOPIN -64 -16 In
SYMBOL pmos 608 112 M270
SYMATTR InstName M1
SYMBOL nmos 480 256 R0
SYMATTR InstName M2
SYMBOL res 640 96 R0
SYMATTR InstName R1
SYMBOL res 0 48 R0
SYMATTR InstName R2
SYMBOL res 0 176 R0
SYMATTR InstName R3
SYMBOL cap 0 336 R0
SYMATTR InstName C1
SYMBOL voltage -160 48 R0
SYMATTR InstName V1
SYMBOL Switches\\ADG1401 240 272 R0
SYMATTR InstName U1
