Version 4
SHEET 1 880 680
WIRE -48 160 -112 160
WIRE 128 160 32 160
WIRE 448 160 368 160
FLAG -112 160 0
FLAG 448 160 OUT
SYMBOL SpecialFunctions\\2ndOrdLowpass 208 144 R0
SYMATTR InstName U1
SYMATTR Value f0=40K Q=0.707 H=1
SYMBOL voltage 48 160 R90
WINDOW 0 -32 56 VBottom 2
WINDOW 3 32 56 VTop 2
WINDOW 123 60 56 VTop 2
WINDOW 39 0 0 Left 0
SYMATTR InstName V1
SYMATTR Value ""
SYMATTR Value2 AC 1 0
TEXT 128 -8 Left 2 !.ac dec 100 1 10000K
