Version 4
SHEET 1 1000 680
WIRE -176 -768 -208 -768
WIRE -64 -768 -96 -768
WIRE -32 -768 -64 -768
WIRE 96 -768 48 -768
WIRE 880 -768 848 -768
WIRE 992 -768 960 -768
WIRE 0 -640 0 -656
WIRE 912 -640 912 -656
WIRE -64 -624 -64 -768
WIRE -32 -624 -64 -624
WIRE 848 -624 848 -768
WIRE 848 -624 800 -624
WIRE 880 -624 848 -624
WIRE 96 -608 96 -768
WIRE 96 -608 32 -608
WIRE 160 -608 96 -608
WIRE 288 -608 240 -608
WIRE 992 -608 992 -768
WIRE 992 -608 944 -608
WIRE -368 -592 -400 -592
WIRE -240 -592 -288 -592
WIRE -128 -592 -176 -592
WIRE -32 -592 -128 -592
WIRE 288 -592 288 -608
WIRE 880 -592 288 -592
WIRE -128 -560 -128 -592
WIRE 0 -560 0 -576
WIRE 912 -560 912 -576
WIRE -128 -448 -128 -480
WIRE 288 -384 288 -592
WIRE 288 -384 208 -384
WIRE 672 -384 288 -384
WIRE 208 -336 208 -384
WIRE 672 -336 672 -384
WIRE 160 -288 112 -288
WIRE 624 -288 576 -288
WIRE -848 -256 -848 -288
WIRE 208 -224 208 -256
WIRE 672 -224 672 -256
WIRE 672 -224 208 -224
WIRE 800 -224 800 -624
WIRE 800 -224 672 -224
WIRE -848 -160 -848 -176
WIRE 112 -144 112 -288
WIRE 576 -144 576 -288
WIRE 16 0 0 0
WIRE 112 0 112 -80
WIRE 112 0 80 0
WIRE 144 0 112 0
WIRE 256 0 224 0
WIRE 304 0 256 0
WIRE 480 0 464 0
WIRE 576 0 576 -80
WIRE 576 0 544 0
WIRE 608 0 576 0
WIRE 720 0 688 0
WIRE 768 0 720 0
WIRE 256 64 256 0
WIRE 256 64 96 64
WIRE 720 64 720 0
WIRE 720 64 560 64
WIRE -848 96 -848 64
WIRE 176 144 176 128
WIRE 640 144 640 128
WIRE 96 160 96 64
WIRE 144 160 96 160
WIRE 560 160 560 64
WIRE 608 160 560 160
WIRE 256 176 256 64
WIRE 256 176 208 176
WIRE 720 176 720 64
WIRE 720 176 672 176
WIRE 0 192 0 0
WIRE 144 192 0 192
WIRE 304 192 304 0
WIRE 464 192 464 0
WIRE 608 192 464 192
WIRE 768 192 768 0
WIRE -848 208 -848 176
WIRE -768 208 -848 208
WIRE 0 208 0 192
WIRE 464 208 464 192
WIRE 176 224 176 208
WIRE 640 224 640 208
WIRE -848 240 -848 208
WIRE 0 304 0 288
WIRE 304 304 304 272
WIRE 464 304 464 288
WIRE 768 304 768 272
WIRE -848 352 -848 320
WIRE -848 352 -912 352
FLAG 304 304 -4.5
FLAG 768 304 -4.5
FLAG -912 352 0
FLAG -768 208 Vcc/2
FLAG 0 304 Vcc/2
FLAG 464 304 Vcc/2
FLAG -848 64 Vcc
FLAG 176 224 0
FLAG 640 224 0
FLAG 176 128 Vcc
FLAG 640 128 Vcc
FLAG 0 -560 0
FLAG 0 -656 Vcc
FLAG 912 -560 0
FLAG 912 -656 Vcc
FLAG -848 -160 0
FLAG -848 -288 VIN
FLAG -400 -592 VIN
FLAG -208 -768 Vcc/2
FLAG -128 -448 Vcc/2
SYMBOL TL072 176 176 R0
SYMATTR InstName U1
SYMBOL voltage -848 80 R0
SYMATTR InstName V1
SYMATTR Value 4.5
SYMBOL voltage -848 224 R0
SYMATTR InstName V2
SYMATTR Value 4.5
SYMBOL res -16 192 R0
SYMATTR InstName R1
SYMATTR Value 100K
SYMBOL cap 80 -16 R90
WINDOW 0 0 32 VBottom 2
WINDOW 3 32 32 VTop 2
SYMATTR InstName C1
SYMATTR Value 0.056µ
SYMATTR SpiceLine V=16 Irms=0 Rser=0 Lser=0 mfg="Murata" pn="GCM155R71C563KA55" type="X7R"
SYMBOL res 240 -16 R90
WINDOW 0 0 56 VBottom 2
WINDOW 3 32 56 VTop 2
SYMATTR InstName R2
SYMATTR Value 330
SYMBOL res 288 176 R0
SYMATTR InstName R3
SYMATTR Value 470K
SYMBOL polcap 96 -144 R0
WINDOW 3 24 56 Left 2
SYMATTR InstName C2
SYMATTR Value 1.5µ
SYMATTR Description Capacitor
SYMATTR Type cap
SYMATTR SpiceLine V=16 Irms=120m Rser=6.4 Lser=0 mfg="Vishay" pn="293D155M016B" type="Tantalum"
SYMBOL TL072 640 176 R0
SYMATTR InstName U2
SYMBOL res 448 192 R0
SYMATTR InstName R4
SYMATTR Value 82K
SYMBOL cap 544 -16 R90
WINDOW 0 0 32 VBottom 2
WINDOW 3 32 32 VTop 2
SYMATTR InstName C3
SYMATTR Value 0.033µ
SYMATTR SpiceLine V=16 Irms=0 Rser=0.0546 Lser=715p mfg="Würth Elektronik" pn="885012208028 WCAP-CSGP 1206" type="X7R"
SYMBOL res 704 -16 R90
WINDOW 0 0 56 VBottom 2
WINDOW 3 32 56 VTop 2
SYMATTR InstName R5
SYMATTR Value 330
SYMBOL res 752 176 R0
SYMATTR InstName R6
SYMATTR Value 470K
SYMBOL polcap 560 -144 R0
WINDOW 3 24 56 Left 2
SYMATTR InstName C4
SYMATTR Value 0.68µ
SYMATTR Description Capacitor
SYMATTR Type cap
SYMATTR SpiceLine V=16 Irms=120m Rser=6.4 Lser=0 mfg="Vishay" pn="293D155M016B" type="Tantalum"
SYMBOL pot 224 -352 M0
WINDOW 3 119 31 Left 2
SYMATTR InstName U3
SYMATTR Value Rtot=10K wiper=.25
SYMBOL pot 688 -352 M0
WINDOW 3 119 31 Left 2
SYMATTR InstName U4
SYMBOL TL072 0 -608 R0
SYMATTR InstName U5
SYMBOL TL072 912 -608 R0
SYMATTR InstName U6
SYMBOL res -272 -608 R90
WINDOW 0 0 56 VBottom 2
WINDOW 3 32 56 VTop 2
SYMATTR InstName R7
SYMATTR Value 10K
SYMBOL res 64 -784 R90
WINDOW 0 0 56 VBottom 2
WINDOW 3 32 56 VTop 2
SYMATTR InstName R8
SYMATTR Value 1K
SYMBOL res -80 -784 R90
WINDOW 0 0 56 VBottom 2
WINDOW 3 32 56 VTop 2
SYMATTR InstName R9
SYMATTR Value 10K
SYMBOL voltage -848 -272 R0
WINDOW 123 24 44 Left 2
WINDOW 39 0 0 Left 0
SYMATTR InstName V3
SYMATTR Value SINE(0 1 100)
SYMATTR Value2 AC 100m
SYMBOL res 976 -784 R90
WINDOW 0 0 56 VBottom 2
WINDOW 3 32 56 VTop 2
SYMATTR InstName R10
SYMATTR Value 3.3K
SYMBOL res 256 -624 R90
WINDOW 0 0 56 VBottom 2
WINDOW 3 32 56 VTop 2
SYMATTR InstName R11
SYMATTR Value 3.3K
SYMBOL res -144 -576 R0
SYMATTR InstName R12
SYMATTR Value 470K
SYMBOL cap -176 -608 R90
WINDOW 0 0 32 VBottom 2
WINDOW 3 32 32 VTop 2
SYMATTR InstName C5
SYMATTR Value 0.047µ
SYMATTR SpiceLine V=16 Irms=0 Rser=0.0511 Lser=447p mfg="Würth Elektronik" pn="885012208029 WCAP-CSGP 1206" type="X7R"
TEXT -776 -536 Left 2 !.tran 0 500m 450m 10u
TEXT -776 -480 Left 2 !.include pot.sub
