Version 4
SHEET 1 6012 1972
WIRE 192 -864 160 -864
WIRE 320 -864 256 -864
WIRE 5920 -848 5728 -848
WIRE 4688 -784 4592 -784
WIRE 4848 -784 4752 -784
WIRE 5040 -784 4848 -784
WIRE 5216 -784 5136 -784
WIRE 5312 -784 5216 -784
WIRE 5568 -784 5408 -784
WIRE 3616 -768 3568 -768
WIRE 3872 -768 3840 -768
WIRE 3984 -768 3952 -768
WIRE 4848 -768 4848 -784
WIRE -208 -752 -272 -752
WIRE -112 -752 -144 -752
WIRE 0 -752 -32 -752
WIRE 160 -752 160 -864
WIRE 160 -752 80 -752
WIRE 192 -752 160 -752
WIRE 320 -752 320 -864
WIRE 320 -752 272 -752
WIRE 656 -752 608 -752
WIRE 5808 -752 5808 -768
WIRE 3568 -736 3568 -768
WIRE 3616 -736 3568 -736
WIRE 5728 -736 5728 -848
WIRE 5776 -736 5728 -736
WIRE 80 -720 80 -752
WIRE 608 -720 608 -752
WIRE 656 -720 608 -720
WIRE 3568 -720 3568 -736
WIRE 5920 -720 5920 -848
WIRE 5920 -720 5840 -720
WIRE 608 -704 608 -720
WIRE 5216 -704 5216 -784
WIRE 5568 -704 5216 -704
WIRE 5776 -704 5648 -704
WIRE 0 -672 0 -752
WIRE 32 -672 0 -672
WIRE 4848 -672 4848 -688
WIRE 5808 -672 5808 -688
WIRE 5072 -656 5072 -736
WIRE 5216 -656 5216 -704
WIRE 5376 -656 5376 -736
WIRE 3904 -640 3904 -656
WIRE 5920 -640 5920 -720
WIRE 224 -624 224 -640
WIRE 3840 -624 3840 -768
WIRE 3872 -624 3840 -624
WIRE 160 -608 160 -752
WIRE 192 -608 160 -608
WIRE 3984 -608 3984 -768
WIRE 3984 -608 3936 -608
WIRE 4048 -608 3984 -608
WIRE 4160 -608 4112 -608
WIRE 4240 -608 4160 -608
WIRE 320 -592 320 -752
WIRE 320 -592 256 -592
WIRE 368 -592 320 -592
WIRE 464 -592 368 -592
WIRE 3712 -592 544 -592
WIRE 3872 -592 3712 -592
WIRE -368 -576 -400 -576
WIRE -240 -576 -288 -576
WIRE -128 -576 -176 -576
WIRE 80 -576 80 -640
WIRE 80 -576 -128 -576
WIRE 192 -576 80 -576
WIRE 3904 -560 3904 -576
WIRE 4160 -560 4160 -608
WIRE -128 -544 -128 -576
WIRE 224 -544 224 -560
WIRE 5072 -544 5072 -592
WIRE 5072 -544 4800 -544
WIRE 5216 -544 5216 -576
WIRE 5376 -544 5376 -592
WIRE 5664 -544 5376 -544
WIRE 5920 -528 5920 -560
WIRE 368 -512 368 -592
WIRE 4640 -512 4640 -560
WIRE 5072 -512 5072 -544
WIRE 5376 -512 5376 -544
WIRE 4800 -464 4800 -544
WIRE 5664 -464 5664 -544
WIRE -128 -432 -128 -464
WIRE 5072 -416 5072 -448
WIRE 5216 -416 5072 -416
WIRE 5376 -416 5376 -448
WIRE 5376 -416 5216 -416
WIRE 4640 -400 4640 -448
WIRE 704 -384 224 -384
WIRE 1168 -384 704 -384
WIRE 1664 -384 1168 -384
WIRE 2192 -384 1664 -384
WIRE 2688 -384 2192 -384
WIRE 3200 -384 2688 -384
WIRE 3712 -384 3712 -592
WIRE 3712 -384 3200 -384
WIRE 5216 -384 5216 -416
WIRE -400 -352 -400 -384
WIRE 224 -336 224 -384
WIRE 704 -336 704 -384
WIRE 1168 -336 1168 -384
WIRE 1664 -336 1664 -384
WIRE 2192 -336 2192 -384
WIRE 2688 -336 2688 -384
WIRE 3200 -336 3200 -384
WIRE 3712 -336 3712 -384
WIRE 176 -304 128 -304
WIRE 656 -304 608 -304
WIRE 1120 -304 1072 -304
WIRE 1616 -304 1568 -304
WIRE 2144 -304 2096 -304
WIRE 2640 -304 2592 -304
WIRE 3152 -304 3104 -304
WIRE 3664 -304 3616 -304
WIRE 5216 -272 5216 -288
WIRE 5216 -272 4944 -272
WIRE 5488 -272 5216 -272
WIRE -400 -256 -400 -272
WIRE 4640 -256 4640 -320
WIRE 224 -224 224 -256
WIRE 704 -224 704 -256
WIRE 704 -224 224 -224
WIRE 1168 -224 1168 -256
WIRE 1168 -224 704 -224
WIRE 1664 -224 1664 -256
WIRE 1664 -224 1168 -224
WIRE 2192 -224 2192 -256
WIRE 2192 -224 1664 -224
WIRE 2688 -224 2688 -256
WIRE 2688 -224 2192 -224
WIRE 3200 -224 3200 -256
WIRE 3200 -224 2688 -224
WIRE 3712 -224 3712 -256
WIRE 3712 -224 3200 -224
WIRE 3840 -224 3840 -624
WIRE 3840 -224 3712 -224
WIRE 4944 -160 4944 -192
WIRE 5024 -160 4944 -160
WIRE 5168 -160 5088 -160
WIRE 5344 -160 5264 -160
WIRE 5488 -160 5488 -192
WIRE 5488 -160 5408 -160
WIRE 128 -144 128 -304
WIRE 608 -144 608 -304
WIRE 1072 -144 1072 -304
WIRE 1568 -144 1568 -304
WIRE 2096 -144 2096 -304
WIRE 2592 -144 2592 -304
WIRE 3104 -144 3104 -304
WIRE 3616 -144 3616 -304
WIRE 4640 -64 4640 -192
WIRE 4800 -64 4800 -384
WIRE 4800 -64 4640 -64
WIRE 4944 -64 4944 -160
WIRE 4944 -64 4800 -64
WIRE 5024 -64 4944 -64
WIRE 5168 -64 5168 -160
WIRE 5168 -64 5104 -64
WIRE 5264 -64 5264 -160
WIRE 5328 -64 5264 -64
WIRE 5488 -64 5488 -160
WIRE 5488 -64 5408 -64
WIRE 5664 -64 5664 -384
WIRE 5664 -64 5488 -64
WIRE 4944 -16 4944 -64
WIRE 5488 -16 5488 -64
WIRE -400 0 -400 -32
WIRE 32 0 16 0
WIRE 128 0 128 -80
WIRE 128 0 96 0
WIRE 160 0 128 0
WIRE 272 0 240 0
WIRE 320 0 272 0
WIRE 512 0 496 0
WIRE 608 0 608 -80
WIRE 608 0 576 0
WIRE 640 0 608 0
WIRE 752 0 720 0
WIRE 800 0 752 0
WIRE 976 0 960 0
WIRE 1072 0 1072 -80
WIRE 1072 0 1040 0
WIRE 1104 0 1072 0
WIRE 1216 0 1184 0
WIRE 1264 0 1216 0
WIRE 1472 0 1456 0
WIRE 1568 0 1568 -80
WIRE 1568 0 1536 0
WIRE 1600 0 1568 0
WIRE 1712 0 1680 0
WIRE 1760 0 1712 0
WIRE 2000 0 1984 0
WIRE 2096 0 2096 -80
WIRE 2096 0 2064 0
WIRE 2128 0 2096 0
WIRE 2240 0 2208 0
WIRE 2288 0 2240 0
WIRE 2496 0 2480 0
WIRE 2592 0 2592 -80
WIRE 2592 0 2560 0
WIRE 2624 0 2592 0
WIRE 2736 0 2704 0
WIRE 2784 0 2736 0
WIRE 3008 0 2992 0
WIRE 3104 0 3104 -80
WIRE 3104 0 3072 0
WIRE 3136 0 3104 0
WIRE 3248 0 3216 0
WIRE 3296 0 3248 0
WIRE 3520 0 3504 0
WIRE 3616 0 3616 -80
WIRE 3616 0 3584 0
WIRE 3648 0 3616 0
WIRE 3760 0 3728 0
WIRE 3808 0 3760 0
WIRE 5072 32 5008 32
WIRE 5168 32 5264 -64
WIRE 5168 32 5072 32
WIRE 5264 32 5168 -64
WIRE 5360 32 5264 32
WIRE 5424 32 5360 32
WIRE 272 64 272 0
WIRE 272 64 112 64
WIRE 752 64 752 0
WIRE 752 64 592 64
WIRE 1216 64 1216 0
WIRE 1216 64 1056 64
WIRE 1712 64 1712 0
WIRE 1712 64 1552 64
WIRE 2240 64 2240 0
WIRE 2240 64 2080 64
WIRE 2736 64 2736 0
WIRE 2736 64 2576 64
WIRE 3248 64 3248 0
WIRE 3248 64 3088 64
WIRE 3760 64 3760 0
WIRE 3760 64 3600 64
WIRE 320 80 320 0
WIRE 800 80 800 0
WIRE 1264 80 1264 0
WIRE 1760 80 1760 0
WIRE 2288 80 2288 0
WIRE 2784 80 2784 0
WIRE 3296 80 3296 0
WIRE 3808 80 3808 0
WIRE -400 112 -400 80
WIRE -320 112 -400 112
WIRE 4688 112 4688 80
WIRE 5072 112 5072 32
WIRE 5168 112 5168 32
WIRE 5264 112 5264 32
WIRE 5360 112 5360 32
WIRE -400 144 -400 112
WIRE 192 144 192 128
WIRE 672 144 672 128
WIRE 1136 144 1136 128
WIRE 1632 144 1632 128
WIRE 2160 144 2160 128
WIRE 2656 144 2656 128
WIRE 3168 144 3168 128
WIRE 3680 144 3680 128
WIRE 112 160 112 64
WIRE 160 160 112 160
WIRE 592 160 592 64
WIRE 640 160 592 160
WIRE 1056 160 1056 64
WIRE 1104 160 1056 160
WIRE 1552 160 1552 64
WIRE 1600 160 1552 160
WIRE 2080 160 2080 64
WIRE 2128 160 2080 160
WIRE 2576 160 2576 64
WIRE 2624 160 2576 160
WIRE 3088 160 3088 64
WIRE 3136 160 3088 160
WIRE 3600 160 3600 64
WIRE 3648 160 3600 160
WIRE 272 176 272 64
WIRE 272 176 224 176
WIRE 752 176 752 64
WIRE 752 176 704 176
WIRE 1216 176 1216 64
WIRE 1216 176 1168 176
WIRE 1712 176 1712 64
WIRE 1712 176 1664 176
WIRE 2240 176 2240 64
WIRE 2240 176 2192 176
WIRE 2736 176 2736 64
WIRE 2736 176 2688 176
WIRE 3248 176 3248 64
WIRE 3248 176 3200 176
WIRE 3760 176 3760 64
WIRE 3760 176 3712 176
WIRE 16 192 16 0
WIRE 160 192 16 192
WIRE 496 192 496 0
WIRE 640 192 496 192
WIRE 960 192 960 0
WIRE 1104 192 960 192
WIRE 1456 192 1456 0
WIRE 1600 192 1456 192
WIRE 1984 192 1984 0
WIRE 2128 192 1984 192
WIRE 2480 192 2480 0
WIRE 2624 192 2480 192
WIRE 2992 192 2992 0
WIRE 3136 192 2992 192
WIRE 3504 192 3504 0
WIRE 3648 192 3504 192
WIRE 16 208 16 192
WIRE 496 208 496 192
WIRE 960 208 960 192
WIRE 1456 208 1456 192
WIRE 1984 208 1984 192
WIRE 2480 208 2480 192
WIRE 2992 208 2992 192
WIRE 3504 208 3504 192
WIRE 192 224 192 208
WIRE 672 224 672 208
WIRE 1136 224 1136 208
WIRE 1632 224 1632 208
WIRE 2160 224 2160 208
WIRE 2656 224 2656 208
WIRE 3168 224 3168 208
WIRE 3680 224 3680 208
WIRE 4416 224 4352 224
WIRE 4512 224 4496 224
WIRE 4688 224 4688 192
WIRE 4688 224 4592 224
WIRE 4784 224 4688 224
WIRE 4944 224 4944 80
WIRE 5072 224 5072 192
WIRE 5072 224 4944 224
WIRE 5168 224 5168 176
WIRE 5264 224 5264 176
WIRE 5264 224 5168 224
WIRE 5360 224 5360 192
WIRE 5488 224 5488 80
WIRE 5488 224 5360 224
WIRE -400 256 -400 224
WIRE -400 256 -464 256
WIRE 4688 256 4688 224
WIRE 4944 256 4944 224
WIRE 5488 256 5488 224
WIRE 16 304 16 288
WIRE 320 304 320 160
WIRE 496 304 496 288
WIRE 800 304 800 160
WIRE 960 304 960 288
WIRE 1264 304 1264 160
WIRE 1456 304 1456 288
WIRE 1760 304 1760 160
WIRE 1984 304 1984 288
WIRE 2288 304 2288 160
WIRE 2480 304 2480 288
WIRE 2784 304 2784 160
WIRE 2992 304 2992 288
WIRE 3296 304 3296 160
WIRE 3504 304 3504 288
WIRE 3808 304 3808 160
WIRE 4784 320 4784 224
WIRE 5168 320 5168 224
WIRE 5168 320 4784 320
WIRE 4432 352 4432 272
WIRE 4688 352 4688 320
WIRE 4432 464 4432 432
WIRE 4480 464 4480 272
FLAG -464 256 0
FLAG -320 112 Vcc/2
FLAG 496 304 Vcc/2
FLAG 960 304 Vcc/2
FLAG -400 -32 Vcc
FLAG 672 224 0
FLAG 1136 224 0
FLAG 672 128 Vcc
FLAG 1136 128 Vcc
FLAG 224 -544 0
FLAG 224 -640 Vcc
FLAG 3904 -560 0
FLAG 3904 -656 Vcc
FLAG -400 -256 0
FLAG -400 -384 VIN
FLAG -400 -576 VIN
FLAG -128 -432 Vcc/2
FLAG 1456 304 Vcc/2
FLAG 1632 224 0
FLAG 1632 128 Vcc
FLAG 1984 304 Vcc/2
FLAG 2160 224 0
FLAG 2160 128 Vcc
FLAG 2480 304 Vcc/2
FLAG 2656 224 0
FLAG 2656 128 Vcc
FLAG 2992 304 Vcc/2
FLAG 3168 224 0
FLAG 3168 128 Vcc
FLAG 4160 -480 Vcc/2
FLAG -272 -752 0
FLAG 800 304 0
FLAG 1264 304 0
FLAG 1760 304 0
FLAG 2288 304 0
FLAG 2784 304 0
FLAG 3296 304 0
FLAG 4240 -608 EQOUT
FLAG 3504 304 Vcc/2
FLAG 3680 224 0
FLAG 3680 128 Vcc
FLAG 3808 304 0
FLAG 16 304 Vcc/2
FLAG 192 224 0
FLAG 192 128 Vcc
FLAG 320 304 0
FLAG 5216 -544 Vcc/2
FLAG 5216 -384 0
FLAG 4848 -672 Vcc/2
FLAG 368 -512 Vsig
FLAG 4592 -784 Vsig
FLAG 4640 -560 Vcc
FLAG 5568 -784 EQOUT
FLAG 5488 256 0
FLAG 4944 256 0
FLAG 5216 -288 Vcc
FLAG 4688 80 Vcc
FLAG 4688 352 0
FLAG 4352 224 0
FLAG 5808 -672 0
FLAG 5808 -768 Vcc
FLAG 5920 -528 0
FLAG 4432 464 0
FLAG 4480 464 0
FLAG 688 -704 0
FLAG 608 -704 0
FLAG 688 -768 Vcc
FLAG 3648 -720 0
FLAG 3568 -720 0
FLAG 3648 -784 Vcc
SYMBOL voltage -400 -16 R0
SYMATTR InstName V1
SYMATTR Value 4.5
SYMBOL voltage -400 128 R0
SYMATTR InstName V2
SYMATTR Value 4.5
SYMBOL res 480 192 R0
SYMATTR InstName R1
SYMATTR Value 100K
SYMBOL cap 576 -16 R90
WINDOW 0 0 32 VBottom 2
WINDOW 3 32 32 VTop 2
SYMATTR InstName C1
SYMATTR Value 0.051µ
SYMATTR SpiceLine V=16 Irms=0 Rser=0 Lser=0 mfg="Murata" pn="GCM155R71C563KA55" type="X7R"
SYMBOL res 736 -16 R90
WINDOW 0 0 56 VBottom 2
WINDOW 3 32 56 VTop 2
SYMATTR InstName R2
SYMATTR Value 330
SYMBOL res 784 64 R0
SYMATTR InstName R3
SYMATTR Value 470K
SYMBOL polcap 592 -144 R0
WINDOW 3 24 56 Left 2
SYMATTR Value 1.5µ
SYMATTR InstName C2
SYMATTR Description Capacitor
SYMATTR Type cap
SYMATTR SpiceLine V=16 Irms=120m Rser=6.4 Lser=0 mfg="Vishay" pn="293D155M016B" type="Tantalum"
SYMBOL res 944 192 R0
SYMATTR InstName R4
SYMATTR Value 82K
SYMBOL cap 1040 -16 R90
WINDOW 0 0 32 VBottom 2
WINDOW 3 32 32 VTop 2
SYMATTR InstName C3
SYMATTR Value 0.033µ
SYMATTR SpiceLine V=16 Irms=0 Rser=0.0546 Lser=715p mfg="Würth Elektronik" pn="885012208028 WCAP-CSGP 1206" type="X7R"
SYMBOL res 1200 -16 R90
WINDOW 0 0 56 VBottom 2
WINDOW 3 32 56 VTop 2
SYMATTR InstName R5
SYMATTR Value 330
SYMBOL res 1248 64 R0
SYMATTR InstName R6
SYMATTR Value 470K
SYMBOL polcap 1056 -144 R0
WINDOW 3 24 56 Left 2
SYMATTR Value 0.68µ
SYMATTR InstName C4
SYMATTR Description Capacitor
SYMATTR Type cap
SYMATTR SpiceLine V=16 Irms=120m Rser=6.4 Lser=0 mfg="Vishay" pn="293D155M016B" type="Tantalum"
SYMBOL pot 720 -240 R180
WINDOW 3 119 31 Left 2
SYMATTR Value Rtot=10K wiper={P1}
SYMATTR InstName U3
SYMBOL pot 1184 -240 R180
WINDOW 3 119 31 Left 2
SYMATTR Value Rtot=10K wiper={P2}
SYMATTR InstName U4
SYMBOL res -272 -592 R90
WINDOW 0 0 56 VBottom 2
WINDOW 3 32 56 VTop 2
SYMATTR InstName R7
SYMATTR Value 10K
SYMBOL res 288 -768 R90
WINDOW 0 0 56 VBottom 2
WINDOW 3 32 56 VTop 2
SYMATTR InstName R8
SYMATTR Value 10K
SYMBOL res -128 -736 R270
WINDOW 0 32 56 VTop 2
WINDOW 3 0 56 VBottom 2
SYMATTR InstName R9
SYMATTR Value 2.2K
SYMBOL voltage -400 -368 R0
WINDOW 123 24 44 Left 2
WINDOW 39 0 0 Left 0
SYMATTR Value2 AC 1
SYMATTR InstName V3
SYMATTR Value SINE(0 1 50)
SYMBOL res 3968 -784 R90
WINDOW 0 0 56 VBottom 2
WINDOW 3 32 56 VTop 2
SYMATTR InstName R10
SYMATTR Value 10K
SYMBOL res 560 -608 R90
WINDOW 0 0 56 VBottom 2
WINDOW 3 32 56 VTop 2
SYMATTR InstName R11
SYMATTR Value 10K
SYMBOL res -144 -560 R0
SYMATTR InstName R12
SYMATTR Value 470K
SYMBOL cap -176 -592 R90
WINDOW 0 0 32 VBottom 2
WINDOW 3 32 32 VTop 2
SYMATTR InstName C5
SYMATTR Value 0.22µ
SYMATTR SpiceLine V=16 Irms=0 Rser=0.0511 Lser=447p mfg="Würth Elektronik" pn="885012208029 WCAP-CSGP 1206" type="X7R"
SYMBOL res 1440 192 R0
SYMATTR InstName R13
SYMATTR Value 100K
SYMBOL cap 1536 -16 R90
WINDOW 0 0 32 VBottom 2
WINDOW 3 32 32 VTop 2
SYMATTR InstName C6
SYMATTR Value 0.015µ
SYMATTR SpiceLine V=16 Irms=0 Rser=0 Lser=0 mfg="Murata" pn="GCM155R71C563KA55" type="X7R"
SYMBOL res 1696 -16 R90
WINDOW 0 0 56 VBottom 2
WINDOW 3 32 56 VTop 2
SYMATTR InstName R14
SYMATTR Value 330
SYMBOL res 1744 64 R0
SYMATTR InstName R15
SYMATTR Value 470K
SYMBOL polcap 1552 -144 R0
WINDOW 3 24 56 Left 2
SYMATTR Value 0.33µ
SYMATTR InstName C7
SYMATTR Description Capacitor
SYMATTR Type cap
SYMATTR SpiceLine V=16 Irms=120m Rser=6.4 Lser=0 mfg="Vishay" pn="293D155M016B" type="Tantalum"
SYMBOL pot 1680 -240 R180
WINDOW 3 119 31 Left 2
SYMATTR Value Rtot=10K wiper={P3}
SYMATTR InstName U8
SYMBOL res 1968 192 R0
SYMATTR InstName R16
SYMATTR Value 100K
SYMBOL cap 2064 -16 R90
WINDOW 0 0 32 VBottom 2
WINDOW 3 32 32 VTop 2
SYMATTR InstName C8
SYMATTR Value 0.0082µ
SYMATTR SpiceLine V=16 Irms=0 Rser=0 Lser=0 mfg="Murata" pn="GCM155R71C563KA55" type="X7R"
SYMBOL res 2224 -16 R90
WINDOW 0 0 56 VBottom 2
WINDOW 3 32 56 VTop 2
SYMATTR InstName R17
SYMATTR Value 330
SYMBOL res 2272 64 R0
SYMATTR InstName R18
SYMATTR Value 470K
SYMBOL polcap 2080 -144 R0
WINDOW 3 24 56 Left 2
SYMATTR Value 0.15µ
SYMATTR InstName C9
SYMATTR Description Capacitor
SYMATTR Type cap
SYMATTR SpiceLine V=16 Irms=120m Rser=6.4 Lser=0 mfg="Vishay" pn="293D155M016B" type="Tantalum"
SYMBOL pot 2208 -240 R180
WINDOW 3 119 31 Left 2
SYMATTR Value Rtot=10K wiper={P4}
SYMATTR InstName U10
SYMBOL res 2464 192 R0
SYMATTR InstName R19
SYMATTR Value 82k
SYMBOL cap 2560 -16 R90
WINDOW 0 0 32 VBottom 2
WINDOW 3 32 32 VTop 2
SYMATTR InstName C10
SYMATTR Value 0.0039µ
SYMATTR SpiceLine V=16 Irms=0 Rser=0 Lser=0 mfg="Murata" pn="GCM155R71C563KA55" type="X7R"
SYMBOL res 2720 -16 R90
WINDOW 0 0 56 VBottom 2
WINDOW 3 32 56 VTop 2
SYMATTR InstName R20
SYMATTR Value 330
SYMBOL res 2768 64 R0
SYMATTR InstName R21
SYMATTR Value 470K
SYMBOL polcap 2576 -144 R0
WINDOW 3 24 56 Left 2
SYMATTR Value 0.1µ
SYMATTR InstName C11
SYMATTR Description Capacitor
SYMATTR Type cap
SYMATTR SpiceLine V=16 Irms=120m Rser=6.4 Lser=0 mfg="Vishay" pn="293D155M016B" type="Tantalum"
SYMBOL pot 2704 -240 R180
WINDOW 3 119 31 Left 2
SYMATTR Value Rtot=10K wiper={P5}
SYMATTR InstName U12
SYMBOL res 2976 192 R0
SYMATTR InstName R22
SYMATTR Value 82k
SYMBOL cap 3072 -16 R90
WINDOW 0 0 32 VBottom 2
WINDOW 3 32 32 VTop 2
SYMATTR InstName C12
SYMATTR Value 0.0022µ
SYMATTR SpiceLine V=16 Irms=0 Rser=0 Lser=0 mfg="Murata" pn="GCM155R71C563KA55" type="X7R"
SYMBOL res 3232 -16 R90
WINDOW 0 0 56 VBottom 2
WINDOW 3 32 56 VTop 2
SYMATTR InstName R23
SYMATTR Value 330
SYMBOL res 3280 64 R0
SYMATTR InstName R24
SYMATTR Value 470K
SYMBOL polcap 3088 -144 R0
WINDOW 3 24 56 Left 2
SYMATTR Value 0.039µ
SYMATTR InstName C13
SYMATTR Description Capacitor
SYMATTR Type cap
SYMATTR SpiceLine V=16 Irms=120m Rser=6.4 Lser=0 mfg="Vishay" pn="293D155M016B" type="Tantalum"
SYMBOL pot 3216 -240 R180
WINDOW 3 119 31 Left 2
SYMATTR Value Rtot=10K wiper={P6}
SYMATTR InstName U14
SYMBOL cap 256 -880 R90
WINDOW 0 0 32 VBottom 2
WINDOW 3 32 32 VTop 2
SYMATTR InstName C14
SYMATTR Value 270p
SYMATTR SpiceLine V=25 Irms=0 Rser=0 Lser=0 mfg="Murata" pn="GRM0335C1E271JA01" type="C0G"
SYMBOL polcap 4112 -624 R90
WINDOW 0 0 32 VBottom 2
WINDOW 3 32 32 VTop 2
SYMATTR InstName C15
SYMATTR Value 1µ
SYMATTR Description Capacitor
SYMATTR Type cap
SYMATTR SpiceLine V=50 Irms=8.4m Rser=1.5 Lser=1.4p mfg="Würth Elektronik" pn="865090640005 WCAP-ASLU 4x5,5" type="Al electrolytic"
SYMBOL res 4144 -576 R0
SYMATTR InstName R25
SYMATTR Value 1Meg
SYMBOL pot 96 -736 M0
WINDOW 3 118 62 Left 2
SYMATTR Value Rtot=10K wiper={G}
SYMATTR InstName U16
SYMBOL polcap -144 -768 R90
WINDOW 0 0 32 VBottom 2
WINDOW 3 32 32 VTop 2
SYMATTR InstName C17
SYMATTR Value 10µ
SYMATTR Description Capacitor
SYMATTR Type cap
SYMATTR SpiceLine V=16 Irms=0 Rser=2.8 Lser=0 mfg="AVX" pn="TAJC106M016" type="Tantalum"
SYMBOL res 3488 192 R0
SYMATTR InstName R33
SYMATTR Value 82k
SYMBOL cap 3584 -16 R90
WINDOW 0 0 32 VBottom 2
WINDOW 3 32 32 VTop 2
SYMATTR InstName C22
SYMATTR Value 0.0011µ
SYMATTR SpiceLine V=16 Irms=0 Rser=0 Lser=0 mfg="Murata" pn="GCM155R71C563KA55" type="X7R"
SYMBOL res 3744 -16 R90
WINDOW 0 0 56 VBottom 2
WINDOW 3 32 56 VTop 2
SYMATTR InstName R34
SYMATTR Value 330
SYMBOL res 3792 64 R0
SYMATTR InstName R35
SYMATTR Value 470K
SYMBOL polcap 3600 -144 R0
WINDOW 3 24 56 Left 2
SYMATTR Value 0.022µ
SYMATTR InstName C23
SYMATTR Description Capacitor
SYMATTR Type cap
SYMATTR SpiceLine V=16 Irms=120m Rser=6.4 Lser=0 mfg="Vishay" pn="293D155M016B" type="Tantalum"
SYMBOL pot 3728 -240 R180
WINDOW 3 119 31 Left 2
SYMATTR Value Rtot=10K wiper={P7}
SYMATTR InstName U22
SYMBOL res 0 192 R0
SYMATTR InstName R26
SYMATTR Value 100K
SYMBOL cap 96 -16 R90
WINDOW 0 0 32 VBottom 2
WINDOW 3 32 32 VTop 2
SYMATTR InstName C16
SYMATTR Value 0.1µ
SYMATTR SpiceLine V=16 Irms=0 Rser=0 Lser=0 mfg="Murata" pn="GCM155R71C563KA55" type="X7R"
SYMBOL res 256 -16 R90
WINDOW 0 0 56 VBottom 2
WINDOW 3 32 56 VTop 2
SYMATTR InstName R27
SYMATTR Value 330
SYMBOL res 304 64 R0
SYMATTR InstName R28
SYMATTR Value 470K
SYMBOL polcap 112 -144 R0
WINDOW 3 24 56 Left 2
SYMATTR Value 3.0µ
SYMATTR InstName C18
SYMATTR Description Capacitor
SYMATTR Type cap
SYMATTR SpiceLine V=16 Irms=120m Rser=6.4 Lser=0 mfg="Vishay" pn="293D155M016B" type="Tantalum"
SYMBOL pot 240 -240 R180
WINDOW 3 119 31 Left 2
SYMATTR Value Rtot=10K wiper={P0}
SYMATTR InstName U17
SYMBOL njf 5312 -736 R270
SYMATTR InstName J1
SYMATTR Value 2N3819
SYMBOL njf 5136 -736 M270
SYMATTR InstName J2
SYMATTR Value 2N3819
SYMBOL res 5200 -672 R0
SYMATTR InstName R29
SYMATTR Value 1Meg
SYMBOL diode 5056 -656 R0
SYMATTR InstName D1
SYMATTR Value 1N914
SYMBOL diode 5360 -656 R0
SYMATTR InstName D2
SYMATTR Value 1N914
SYMBOL cap 5056 -512 R0
SYMATTR InstName C19
SYMATTR Value 0.022µ
SYMATTR SpiceLine V=16 Irms=0 Rser=0.0511 Lser=447p mfg="Würth Elektronik" pn="885012208029 WCAP-CSGP 1206" type="X7R"
SYMBOL cap 5360 -512 R0
SYMATTR InstName C20
SYMATTR Value 0.022µ
SYMATTR SpiceLine V=16 Irms=0 Rser=0.0511 Lser=447p mfg="Würth Elektronik" pn="885012208029 WCAP-CSGP 1206" type="X7R"
SYMBOL polcap 4752 -800 R90
WINDOW 0 0 32 VBottom 2
WINDOW 3 32 32 VTop 2
SYMATTR InstName C21
SYMATTR Value 1µ
SYMATTR Description Capacitor
SYMATTR Type cap
SYMATTR SpiceLine V=50 Irms=90m Rser=9.6 Lser=0
SYMBOL res 4832 -784 R0
SYMATTR InstName R30
SYMATTR Value 1Meg
SYMBOL zener 4656 -448 R180
WINDOW 0 24 64 Left 2
WINDOW 3 24 0 Left 2
SYMATTR InstName D3
SYMATTR Value STZ5_6N
SYMBOL res 4624 -416 R0
SYMATTR InstName R31
SYMATTR Value 3.9K
SYMBOL LED 4624 -256 R0
SYMATTR InstName D4
SYMATTR Value LXHL-BW02
SYMBOL res 4784 -480 R0
SYMATTR InstName R32
SYMATTR Value 1Meg
SYMBOL res 5648 -480 R0
SYMATTR InstName R36
SYMATTR Value 1Meg
SYMBOL res 5664 -720 R90
WINDOW 0 0 56 VBottom 2
WINDOW 3 32 56 VTop 2
SYMATTR InstName R37
SYMATTR Value 4.7K
SYMBOL npn 5424 -16 R0
SYMATTR InstName Q1
SYMATTR Value 2N5210
SYMBOL res 5424 -80 R90
WINDOW 0 0 56 VBottom 2
WINDOW 3 32 56 VTop 2
SYMATTR InstName R39
SYMATTR Value 100K
SYMBOL cap 5408 -176 R90
WINDOW 0 0 32 VBottom 2
WINDOW 3 32 32 VTop 2
SYMATTR InstName C24
SYMATTR Value 470p
SYMATTR SpiceLine V=16 Irms=0 Rser=0.34 Lser=421p mfg="Würth Elektronik" pn="885012208021 WCAP-CSGP 1206" type="X7R"
SYMBOL res 5472 -288 R0
SYMATTR InstName R40
SYMATTR Value 56K
SYMBOL res 5344 96 R0
SYMATTR InstName R41
SYMATTR Value 56K
SYMBOL cap 5248 112 R0
SYMATTR InstName C25
SYMATTR Value 220p
SYMATTR SpiceLine V=16 Irms=0 Rser=0.5734 Lser=186p mfg="Würth Elektronik" pn="885012205021 WCAP-CSGP 0402" type="X7R"
SYMBOL npn 5008 -16 M0
SYMATTR InstName Q2
SYMATTR Value 2N5210
SYMBOL res 5008 -80 M90
WINDOW 0 0 56 VBottom 2
WINDOW 3 32 56 VTop 2
SYMATTR InstName R38
SYMATTR Value 100K
SYMBOL cap 5024 -176 M90
WINDOW 0 0 32 VBottom 2
WINDOW 3 32 32 VTop 2
SYMATTR InstName C26
SYMATTR Value 470p
SYMATTR SpiceLine V=16 Irms=0 Rser=0.34 Lser=421p mfg="Würth Elektronik" pn="885012208021 WCAP-CSGP 1206" type="X7R"
SYMBOL res 4960 -288 M0
SYMATTR InstName R42
SYMATTR Value 56K
SYMBOL res 5088 96 M0
SYMATTR InstName R43
SYMATTR Value 56K
SYMBOL cap 5184 112 M0
SYMATTR InstName C27
SYMATTR Value 220p
SYMATTR SpiceLine V=16 Irms=0 Rser=0.5734 Lser=186p mfg="Würth Elektronik" pn="885012205021 WCAP-CSGP 0402" type="X7R"
SYMBOL res 4672 96 R0
SYMATTR InstName R44
SYMATTR Value 1Meg
SYMBOL cap 4704 256 M0
SYMATTR InstName C28
SYMATTR Value 0.001µ
SYMATTR SpiceLine V=16 Irms=0 Rser=0.5734 Lser=186p
SYMBOL res 4608 208 R90
WINDOW 0 0 56 VBottom 2
WINDOW 3 32 56 VTop 2
SYMATTR InstName R45
SYMATTR Value 100
SYMBOL sw 4512 224 M270
SYMATTR InstName S1
SYMATTR Value FOOTSW
SYMBOL voltage 4432 336 R0
WINDOW 123 0 0 Left 0
WINDOW 39 0 0 Left 0
SYMATTR InstName FOOTSW
SYMATTR Value PULSE(0 5 200m 10u 10u 50m 500m)
SYMBOL res 5904 -656 R0
SYMATTR InstName R46
SYMATTR Value 10K
SYMBOL OPA1692 720 -736 R0
SYMATTR InstName U19
SYMBOL OPA1692 3680 -752 R0
SYMATTR InstName U20
SYMBOL TL07XH_TL08XH 3936 -592 R0
WINDOW 3 73 9 Top 2
SYMATTR InstName U23
SYMBOL TL07XH_TL08XH 256 -576 R0
WINDOW 3 73 9 Top 2
SYMATTR InstName U24
SYMBOL TL07XH_TL08XH 224 192 R0
WINDOW 3 73 9 Top 2
SYMATTR InstName U1
SYMBOL TL07XH_TL08XH 704 192 R0
WINDOW 3 73 9 Top 2
SYMATTR InstName U2
SYMBOL TL07XH_TL08XH 1168 192 R0
WINDOW 3 73 9 Top 2
SYMATTR InstName U5
SYMBOL TL07XH_TL08XH 1664 192 R0
WINDOW 3 73 9 Top 2
SYMATTR InstName U6
SYMBOL TL07XH_TL08XH 2192 192 R0
WINDOW 3 73 9 Top 2
SYMATTR InstName U7
SYMBOL TL07XH_TL08XH 2688 192 R0
WINDOW 3 73 9 Top 2
SYMATTR InstName U9
SYMBOL TL07XH_TL08XH 3200 192 R0
WINDOW 3 73 9 Top 2
SYMATTR InstName U11
SYMBOL TL07XH_TL08XH 3712 192 R0
WINDOW 3 73 9 Top 2
SYMATTR InstName U15
SYMBOL TL07XH_TL08XH 5840 -704 R0
WINDOW 3 73 9 Top 2
SYMATTR InstName U13
TEXT 1192 -896 Left 2 !.tran 0 2000m 0 10u
TEXT 1192 -840 Left 2 !.include pot.sub
TEXT 1192 -704 Left 2 !.param G=0.5 P0=0.5 P1=0.95 P2=0.5 P3=0.5 P4=0.5 P5=0.5 P6=0.5 P7=0.5
TEXT 1192 -944 Left 2 ;.ac dec 100 1 100K
TEXT 744 -296 Left 2 ;100Hz
TEXT 1200 -296 Left 2 ;200Hz
TEXT 1704 -296 Left 2 ;400Hz
TEXT 2232 -296 Left 2 ;800Hz
TEXT 2728 -296 Left 2 ;1.6kHz
TEXT 3240 -296 Left 2 ;3.2kHz
TEXT 3744 -296 Left 2 ;6.4kHz
TEXT -56 448 Left 2 ;To scale Fc by k, scale C1 and C2 by 1/k\nQ = C1/C2\n \nTo ajust Q and keep Fc: C1*b, C2/b\n \nhttps://www.youtube.com/watch?v=i3xWgun-zb0
TEXT 264 -296 Left 2 ;50Hz
TEXT 5168 -944 Left 2 ;NMOS JFET
TEXT 5304 -808 Left 2 ;D
TEXT 5408 -744 Left 2 ;G
TEXT 5408 -808 Left 2 ;S
TEXT 4568 544 Left 2 !.model FOOTSW SW(Ron=1m Roff=10Meg Vt=0.5 Vh=-0.2)
TEXT 1192 -992 Left 2 ;.noise V(EQOUT) V3 dec 100 20 20K
TEXT 1800 -992 Left 2 ;Total RMS noise from 20-20k for TL072H\n74.906µV with all sliders at 0.5 and G=0.95\n67.332µV with all sliders at 0.5 and G=0.5\n \nTotal RMS noise from 20-20k for OPA1692 for In/Out Buffer\n19.591µV with all sliders at 0.5 and G=0.95\n15.721µV with all sliders at 0.5 and G=0.5
