Version 4
SHEET 1 1568 680
WIRE -80 -96 -496 -96
WIRE 240 -96 -80 -96
WIRE 944 -96 240 -96
WIRE 1264 -96 944 -96
WIRE -496 -80 -496 -96
WIRE -80 -48 -80 -96
WIRE -64 -48 -80 -48
WIRE 240 -48 240 -96
WIRE 240 -48 224 -48
WIRE 528 -48 320 -48
WIRE 944 -48 944 -96
WIRE 960 -48 944 -48
WIRE 1264 -48 1264 -96
WIRE 1264 -48 1248 -48
WIRE -496 16 -496 0
WIRE -64 32 -304 32
WIRE 272 32 224 32
WIRE 320 32 320 -48
WIRE 320 32 272 32
WIRE 336 32 320 32
WIRE 464 32 416 32
WIRE 960 32 720 32
WIRE 1312 32 1248 32
WIRE 1360 32 1312 32
WIRE 1488 32 1440 32
WIRE -304 112 -304 32
WIRE -176 112 -304 112
WIRE -64 112 -96 112
WIRE 256 112 224 112
WIRE 464 112 464 32
WIRE 464 112 336 112
WIRE 720 112 720 32
WIRE 848 112 720 112
WIRE 960 112 928 112
WIRE 1280 112 1248 112
WIRE 1488 112 1488 32
WIRE 1488 112 1360 112
WIRE -400 192 -480 192
WIRE -304 192 -304 112
WIRE -304 192 -320 192
WIRE -288 192 -304 192
WIRE -192 192 -208 192
WIRE -64 192 -192 192
WIRE 464 192 464 112
WIRE 464 192 224 192
WIRE 528 192 528 -48
WIRE 592 192 528 192
WIRE 720 192 720 112
WIRE 720 192 672 192
WIRE 736 192 720 192
WIRE 832 192 816 192
WIRE 960 192 832 192
WIRE 1488 192 1488 112
WIRE 1488 192 1248 192
WIRE -480 208 -480 192
WIRE -144 272 -160 272
WIRE -64 272 -80 272
WIRE 464 272 464 192
WIRE 880 272 864 272
WIRE 960 272 944 272
WIRE 1488 272 1488 192
WIRE -480 304 -480 288
WIRE -64 352 -80 352
WIRE 240 352 224 352
WIRE 960 352 944 352
WIRE 1264 352 1248 352
WIRE -192 416 -192 192
WIRE 464 416 464 352
WIRE 464 416 -192 416
WIRE 832 416 832 192
WIRE 1488 416 1488 352
WIRE 1488 416 832 416
FLAG -496 16 0
FLAG -80 352 0
FLAG 240 352 0
FLAG -160 272 0
FLAG -480 304 0
FLAG 272 32 OUT
FLAG -480 192 IN
FLAG 944 352 0
FLAG 1264 352 0
FLAG 864 272 0
FLAG 1312 32 OUT2
SYMBOL VOLTAGE -496 -96 R0
SYMATTR InstName V1
SYMATTR Value 3.3
SYMBOL FilterProducts\\LTC1563-2 80 288 R0
SYMATTR InstName U1
SYMBOL cap -80 256 R90
WINDOW 0 0 32 VBottom 2
WINDOW 3 32 32 VTop 2
SYMATTR InstName C1
SYMATTR Value .1µ
SYMBOL res -80 96 R90
WINDOW 0 0 56 VBottom 2
WINDOW 3 32 56 VTop 2
SYMATTR InstName R1
SYMATTR Value {Rc}
SYMBOL res -192 176 R90
WINDOW 0 0 56 VBottom 2
WINDOW 3 32 56 VTop 2
SYMATTR InstName R2
SYMATTR Value {Rc}
SYMBOL VOLTAGE -480 192 R0
SYMATTR InstName V2
SYMATTR Value 1.66 ac 1
SYMBOL res 240 96 M90
WINDOW 0 0 56 VBottom 2
WINDOW 3 32 56 VTop 2
SYMATTR InstName R3
SYMATTR Value {Rc}
SYMBOL res 320 16 M90
WINDOW 0 0 56 VBottom 2
WINDOW 3 32 56 VTop 2
SYMATTR InstName R4
SYMATTR Value {Rc}
SYMBOL res -304 176 R90
WINDOW 0 0 56 VBottom 2
WINDOW 3 32 56 VTop 2
SYMATTR InstName R5
SYMATTR Value {Rc}
SYMBOL res 448 256 R0
SYMATTR InstName R6
SYMATTR Value {Rc}
SYMBOL FilterProducts\\LTC1563-2 1104 288 R0
SYMATTR InstName U2
SYMBOL cap 944 256 R90
WINDOW 0 0 32 VBottom 2
WINDOW 3 32 32 VTop 2
SYMATTR InstName C2
SYMATTR Value .1µ
SYMBOL res 944 96 R90
WINDOW 0 0 56 VBottom 2
WINDOW 3 32 56 VTop 2
SYMATTR InstName R7
SYMATTR Value {Rc}
SYMBOL res 832 176 R90
WINDOW 0 0 56 VBottom 2
WINDOW 3 32 56 VTop 2
SYMATTR InstName R8
SYMATTR Value {Rc}
SYMBOL res 1264 96 M90
WINDOW 0 0 56 VBottom 2
WINDOW 3 32 56 VTop 2
SYMATTR InstName R9
SYMATTR Value {Rc}
SYMBOL res 1344 16 M90
WINDOW 0 0 56 VBottom 2
WINDOW 3 32 56 VTop 2
SYMATTR InstName R10
SYMATTR Value {Rc}
SYMBOL res 1472 256 R0
SYMATTR InstName R11
SYMATTR Value {Rc}
SYMBOL res 688 176 R90
WINDOW 0 0 56 VBottom 2
WINDOW 3 32 56 VTop 2
SYMATTR InstName R12
SYMATTR Value {Rc}
TEXT 344 456 Left 2 !.ac oct 10 1 100Meg
TEXT 344 496 Left 2 !.param Fc=8k Rc=10k*256k/Fc
