Version 4
SHEET 1 988 680
WIRE 208 -256 -240 -256
WIRE 864 -256 208 -256
WIRE 912 -256 864 -256
WIRE 912 -208 912 -256
WIRE 208 -144 208 -256
WIRE 160 -128 112 -128
WIRE -240 -80 -240 -256
WIRE -32 -64 -80 -64
WIRE 112 -64 112 -128
WIRE 112 -64 48 -64
WIRE 864 -64 864 -256
WIRE 912 -64 912 -128
WIRE 368 -48 208 -48
WIRE 544 -48 448 -48
WIRE -80 0 -80 -64
WIRE 544 0 544 -48
WIRE 592 0 544 0
WIRE 720 0 672 0
WIRE 832 0 720 0
WIRE 368 48 208 48
WIRE 544 48 544 0
WIRE 544 48 448 48
WIRE 720 80 720 0
WIRE 912 96 912 64
WIRE 112 128 112 -64
WIRE 160 128 112 128
WIRE -240 176 -240 0
WIRE -80 176 -80 80
WIRE -80 176 -240 176
WIRE 208 176 208 144
WIRE 208 176 -80 176
WIRE 720 176 720 144
WIRE 720 176 208 176
WIRE 864 176 864 64
WIRE 864 176 720 176
WIRE 912 176 864 176
WIRE 720 208 720 176
FLAG 720 208 0
FLAG 720 0 CAP
FLAG -80 -64 Input
SYMBOL nmos 160 48 R0
SYMATTR InstName M1
SYMATTR Value CSD17506Q5A
SYMBOL pmos 160 -48 M180
SYMATTR InstName M2
SYMATTR Value FDS4435A
SYMBOL res 64 -80 R90
WINDOW 0 0 56 VBottom 2
WINDOW 3 32 56 VTop 2
SYMATTR InstName R1
SYMATTR Value 1
SYMBOL res 464 -64 R90
WINDOW 0 0 56 VBottom 2
WINDOW 3 32 56 VTop 2
SYMATTR InstName R2
SYMATTR Value 2
SYMBOL res 464 32 R90
WINDOW 0 0 56 VBottom 2
WINDOW 3 32 56 VTop 2
SYMATTR InstName R3
SYMATTR Value 0.5
SYMBOL ind 576 16 R270
WINDOW 0 32 56 VTop 2
WINDOW 3 5 56 VBottom 2
SYMATTR InstName L1
SYMATTR Value 30n
SYMBOL cap 704 80 R0
SYMATTR InstName C1
SYMATTR Value 1µ
SYMBOL voltage -240 -96 R0
SYMATTR InstName V1
SYMATTR Value 15
SYMBOL voltage -80 -16 R0
WINDOW 3 -97 227 Left 2
WINDOW 123 0 0 Left 0
WINDOW 39 0 0 Left 0
SYMATTR Value PULSE(0 15 100u 100n 100n 10u 20u)
SYMATTR InstName V3
SYMBOL AutoGenerated\\JFEx140 880 0 R0
SYMATTR InstName U1
SYMBOL res 896 -224 R0
SYMATTR InstName R4
SYMATTR Value 100
SYMBOL res 896 80 R0
SYMATTR InstName R5
SYMATTR Value 20
TEXT -184 240 Left 2 !.tran 0 1120u 80u
